@<TRIPOS>MOLECULE
1
 11 11 0 0 0
SMALL
GASTEIGER

@<TRIPOS>ATOM
      1 N          11.5662   10.6459    0.3569 N.pl3   1  UNL1       -0.2487
      2 C          10.9615    9.7279   -0.4364 C.3     1  UNL1        0.0840
      3 C          11.5976    9.0445   -1.4457 C.2     1  UNL1       -0.0600
      4 C          12.9469    9.2751   -1.7003 C.2     1  UNL1       -0.0626
      5 C          13.5870   10.1953   -0.8766 C.2     1  UNL1       -0.0466
      6 C          12.8853   10.8379    0.1179 C.2     1  UNL1        0.0121
      7 H          14.6370   10.4123   -1.0030 H       1  UNL1        0.0630
      8 H           9.9219    9.5373   -0.2211 H       1  UNL1        0.0584
      9 H          11.0408    8.3282   -2.0304 H       1  UNL1        0.0592
     10 H          13.4711    8.7590   -2.4871 H       1  UNL1        0.0615
     11 H          13.3816   11.5394    0.7697 H       1  UNL1        0.0797
@<TRIPOS>BOND
     1    10     4    1
     2     9     3    1
     3     4     3    2
     4     4     5    1
     5     3     2    1
     6     7     5    1
     7     5     6    2
     8     2     8    1
     9     2     1    1
    10     6     1    1
    11     6    11    1
