@<TRIPOS>MOLECULE
3
 27 26 0 0 0
SMALL
GASTEIGER

@<TRIPOS>ATOM
      1 SI         12.9151   11.9373    3.8423 Si      1  UNL1        0.0000
      2 SI         12.3059   13.9681    1.6685 Si      1  UNL1        0.0000
      3 N          11.9354   12.4888    2.5138 N.3     1  UNL1        0.0000
      4 C          13.7505   13.3741    4.7951 C.3     1  UNL1        0.0000
      5 C          11.9553   10.9833    5.1916 C.3     1  UNL1        0.0000
      6 C          14.3004   10.7493    3.2445 C.3     1  UNL1        0.0000
      7 C          11.8640   15.5564    2.6432 C.3     1  UNL1        0.0000
      8 C          14.1743   14.1322    1.2283 C.3     1  UNL1        0.0000
      9 C          11.3935   13.9689   -0.0134 C.3     1  UNL1        0.0000
     10 H          14.3967   12.9824    5.5741 H       1  UNL1        0.0000
     11 H          14.3557   14.0036    4.1541 H       1  UNL1        0.0000
     12 H          13.0107   14.0070    5.2743 H       1  UNL1        0.0000
     13 H          11.0937   11.5359    5.5520 H       1  UNL1        0.0000
     14 H          11.6310   10.0113    4.8386 H       1  UNL1        0.0000
     15 H          12.6110   10.8190    6.0414 H       1  UNL1        0.0000
     16 H          13.8884    9.9091    2.6933 H       1  UNL1        0.0000
     17 H          15.0240   11.2448    2.6050 H       1  UNL1        0.0000
     18 H          14.8415   10.3491    4.0959 H       1  UNL1        0.0000
     19 H          12.5518   15.7100    3.4671 H       1  UNL1        0.0000
     20 H          11.9310   16.4268    1.9972 H       1  UNL1        0.0000
     21 H          10.8615   15.5231    3.0528 H       1  UNL1        0.0000
     22 H          14.4001   13.7205    0.2491 H       1  UNL1        0.0000
     23 H          14.4648   15.1776    1.2120 H       1  UNL1        0.0000
     24 H          14.8097   13.6304    1.9492 H       1  UNL1        0.0000
     25 H          10.3642   13.6332    0.0874 H       1  UNL1        0.0000
     26 H          11.3767   14.9709   -0.4331 H       1  UNL1        0.0000
     27 H          11.8960   13.3283   -0.7369 H       1  UNL1        0.0000
@<TRIPOS>BOND
     1    27     9    1
     2    26     9    1
     3     9    25    1
     4     9     2    1
     5    22     8    1
     6    23     8    1
     7     8     2    1
     8     8    24    1
     9     2     3    1
    10     2     7    1
    11    20     7    1
    12     3     1    1
    13    17     6    1
    14     7    21    1
    15     7    19    1
    16    16     6    1
    17     6     1    1
    18     6    18    1
    19     1     4    1
    20     1     5    1
    21    11     4    1
    22     4    12    1
    23     4    10    1
    24    14     5    1
    25     5    13    1
    26     5    15    1
