@<TRIPOS>MOLECULE
3
 27 26 0 0 0
SMALL
GASTEIGER

@<TRIPOS>ATOM
      1 SI          8.1673   13.3932    2.2024 Si      1  UNL1        0.0000
      2 SI          7.9517   11.5824   -0.2089 Si      1  UNL1        0.0000
      3 N           8.8130   12.1483    1.1799 N.3     1  UNL1        0.0000
      4 C           9.0981   13.4756    3.8754 C.3     1  UNL1        0.0000
      5 C           6.3339   13.0732    2.6827 C.3     1  UNL1        0.0000
      6 C           8.2137   15.1345    1.3958 C.3     1  UNL1        0.0000
      7 C           8.9947   11.8222   -1.8069 C.3     1  UNL1        0.0000
      8 C           6.3131   12.4703   -0.6353 C.3     1  UNL1        0.0000
      9 C           7.4437    9.7417    0.0392 C.3     1  UNL1        0.0000
     10 H           8.6078   12.8694    4.6313 H       1  UNL1        0.0000
     11 H          10.1263   13.1365    3.7755 H       1  UNL1        0.0000
     12 H           9.1103   14.4954    4.2487 H       1  UNL1        0.0000
     13 H           6.1243   13.4482    3.6796 H       1  UNL1        0.0000
     14 H           5.6592   13.5773    2.0015 H       1  UNL1        0.0000
     15 H           6.0861   12.0165    2.6692 H       1  UNL1        0.0000
     16 H           9.2231   15.5190    1.2994 H       1  UNL1        0.0000
     17 H           7.7744   15.1170    0.4035 H       1  UNL1        0.0000
     18 H           7.6446   15.8423    1.9912 H       1  UNL1        0.0000
     19 H          10.0615   11.7005   -1.6464 H       1  UNL1        0.0000
     20 H           8.6950   11.1120   -2.5717 H       1  UNL1        0.0000
     21 H           8.8363   12.8175   -2.2122 H       1  UNL1        0.0000
     22 H           6.4262   13.5481   -0.6403 H       1  UNL1        0.0000
     23 H           5.9766   12.1723   -1.6234 H       1  UNL1        0.0000
     24 H           5.5245   12.2251    0.0652 H       1  UNL1        0.0000
     25 H           6.4230    9.6778    0.4038 H       1  UNL1        0.0000
     26 H           7.4877    9.1854   -0.8923 H       1  UNL1        0.0000
     27 H           8.0773    9.2371    0.7631 H       1  UNL1        0.0000
@<TRIPOS>BOND
     1    20     7    1
     2    21     7    1
     3     7    19    1
     4     7     2    1
     5    23     8    1
     6    26     9    1
     7    22     8    1
     8     8     2    1
     9     8    24    1
    10     2     9    1
    11     2     3    1
    12     9    25    1
    13     9    27    1
    14    17     6    1
    15     3     1    1
    16    16     6    1
    17     6    18    1
    18     6     1    1
    19    14     5    1
    20     1     5    1
    21     1     4    1
    22    15     5    1
    23     5    13    1
    24    11     4    1
    25     4    12    1
    26     4    10    1
