@<TRIPOS>MOLECULE
1
 14 14 0 0 0
SMALL
GASTEIGER

@<TRIPOS>ATOM
      1 N          10.1427   10.0396    2.5512 N.pl3   1  UNL1       -0.2586
      2 C           9.0545   10.1070    3.5074 C.3     1  UNL1        0.0310
      3 C           8.3881    8.7509    3.7687 C.3     1  UNL1       -0.0321
      4 C           9.4252    7.7607    4.2835 C.3     1  UNL1       -0.0318
      5 C          10.5986    7.8050    3.3555 C.2     1  UNL1       -0.0686
      6 C          10.8357    8.8654    2.5625 C.2     1  UNL1        0.0075
      7 H           9.4148   10.5073    4.4627 H       1  UNL1        0.0482
      8 H           8.3084   10.7960    3.0996 H       1  UNL1        0.0482
      9 H           7.5756    8.8820    4.4851 H       1  UNL1        0.0284
     10 H           9.7295    8.0256    5.3026 H       1  UNL1        0.0308
     11 H          11.2547    6.9497    3.3240 H       1  UNL1        0.0585
     12 H          11.6927    8.8248    1.8974 H       1  UNL1        0.0794
     13 H           9.0092    6.7509    4.3227 H       1  UNL1        0.0308
     14 H           7.9649    8.3704    2.8368 H       1  UNL1        0.0284
@<TRIPOS>BOND
     1    12     6    1
     2     1     6    1
     3     1     2    1
     4     6     5    2
     5    14     3    1
     6     8     2    1
     7    11     5    1
     8     5     4    1
     9     2     3    1
    10     2     7    1
    11     3     4    1
    12     3     9    1
    13     4    13    1
    14     4    10    1
