@<TRIPOS>MOLECULE
3
 27 26 0 0 0
SMALL
GASTEIGER

@<TRIPOS>ATOM
      1 SI          5.9443   12.0623    6.1390 Si      1  UNL1        0.0000
      2 SI          7.1846   11.3170    3.5057 Si      1  UNL1        0.0000
      3 N           6.0475   12.2733    4.4144 N.3     1  UNL1        0.0000
      4 C           6.3895   10.2938    6.7267 C.3     1  UNL1        0.0000
      5 C           7.1288   13.2242    7.1025 C.3     1  UNL1        0.0000
      6 C           4.1651   12.3270    6.8138 C.3     1  UNL1        0.0000
      7 C           6.7638    9.4450    3.4067 C.3     1  UNL1        0.0000
      8 C           7.2781   11.9419    1.7036 C.3     1  UNL1        0.0000
      9 C           8.9656   11.4357    4.2123 C.3     1  UNL1        0.0000
     10 H           5.7399    9.5459    6.2842 H       1  UNL1        0.0000
     11 H           7.4118   10.0289    6.4833 H       1  UNL1        0.0000
     12 H           6.2828   10.2213    7.8047 H       1  UNL1        0.0000
     13 H           7.0812   13.0033    8.1645 H       1  UNL1        0.0000
     14 H           8.1571   13.0876    6.7856 H       1  UNL1        0.0000
     15 H           6.8876   14.2748    6.9753 H       1  UNL1        0.0000
     16 H           4.1331   13.1585    7.5104 H       1  UNL1        0.0000
     17 H           3.4380   12.5228    6.0325 H       1  UNL1        0.0000
     18 H           3.8359   11.4431    7.3514 H       1  UNL1        0.0000
     19 H           5.6982    9.2746    3.2963 H       1  UNL1        0.0000
     20 H           7.2593    8.9890    2.5545 H       1  UNL1        0.0000
     21 H           7.0940    8.9142    4.2922 H       1  UNL1        0.0000
     22 H           7.6349   12.9679    1.6590 H       1  UNL1        0.0000
     23 H           7.9642   11.3273    1.1273 H       1  UNL1        0.0000
     24 H           6.3000   11.8949    1.2302 H       1  UNL1        0.0000
     25 H           8.9892   11.2214    5.2746 H       1  UNL1        0.0000
     26 H           9.6142   10.7195    3.7182 H       1  UNL1        0.0000
     27 H           9.4000   12.4197    4.0667 H       1  UNL1        0.0000
@<TRIPOS>BOND
     1    23     8    1
     2    24     8    1
     3    22     8    1
     4     8     2    1
     5    20     7    1
     6    19     7    1
     7     7     2    1
     8     7    21    1
     9     2     9    1
    10     2     3    1
    11    26     9    1
    12    27     9    1
    13     9    25    1
    14     3     1    1
    15    17     6    1
    16     1     4    1
    17     1     6    1
    18     1     5    1
    19    10     4    1
    20    11     4    1
    21     4    12    1
    22    14     5    1
    23     6    18    1
    24     6    16    1
    25    15     5    1
    26     5    13    1
