@<TRIPOS>MOLECULE
1
 11 11 0 0 0
SMALL
GASTEIGER

@<TRIPOS>ATOM
      1 N           3.7402   14.3109    4.2271 N.pl3   1  UNL1       -0.2487
      2 C           2.4359   14.4410    3.8939 C.3     1  UNL1        0.0840
      3 C           1.5464   15.2381    4.5797 C.2     1  UNL1       -0.0600
      4 C           1.9733   15.9618    5.6871 C.2     1  UNL1       -0.0626
      5 C           3.3051   15.8056    6.0626 C.2     1  UNL1       -0.0466
      6 C           4.1331   14.9893    5.3303 C.2     1  UNL1        0.0121
      7 H           2.1125   13.8629    3.0396 H       1  UNL1        0.0584
      8 H           0.5207   15.2930    4.2469 H       1  UNL1        0.0592
      9 H           1.3032   16.6024    6.2360 H       1  UNL1        0.0615
     10 H           3.7009   16.3214    6.9241 H       1  UNL1        0.0630
     11 H           5.1620   14.8464    5.6264 H       1  UNL1        0.0797
@<TRIPOS>BOND
     1     7     2    1
     2     2     1    1
     3     2     3    1
     4     1     6    1
     5     8     3    1
     6     3     4    2
     7     6    11    1
     8     6     5    2
     9     4     5    1
    10     4     9    1
    11     5    10    1
