@<TRIPOS>MOLECULE
1
 9 8 0 0 0
SMALL
GASTEIGER

@<TRIPOS>ATOM
      1 N           5.9600   10.5790    5.7045 N.3     1  UNL1       -0.2469
      2 C           6.1819   10.3212    7.1082 C.3     1  UNL1        0.0021
      3 C           4.8143   11.4487    5.5667 C.3     1  UNL1        0.0021
      4 H           7.0824    9.7122    7.2430 H       1  UNL1        0.0405
      5 H           5.3156    9.8096    7.5829 H       1  UNL1        0.0405
      6 H           6.3252   11.2651    7.6701 H       1  UNL1        0.0405
      7 H           4.5417   11.5765    4.5155 H       1  UNL1        0.0405
      8 H           5.0192   12.4511    5.9941 H       1  UNL1        0.0405
      9 H           3.9259   11.0619    6.1095 H       1  UNL1        0.0405
@<TRIPOS>BOND
     1     7     3    1
     2     3     1    1
     3     3     8    1
     4     3     9    1
     5     1     2    1
     6     2     4    1
     7     2     5    1
     8     2     6    1
