@<TRIPOS>MOLECULE
2
 66 67 0 0 0
SMALL
GASTEIGER

@<TRIPOS>ATOM
      1 SI         10.3831    8.9142    4.3850 Si      1  UNL1        0.0000
      2 N           8.0003    7.8740    5.0834 N.3     1  UNL1        0.0000
      3 N           8.9413    6.5278    1.8268 N.3     1  UNL1        0.0000
      4 C           8.9103    7.7847    3.9998 C.3     1  UNL1        0.0000
      5 C           8.9500    6.9899    2.9600 C.3     1  UNL1        0.0000
      6 C           7.6446    6.6607    5.8190 C.3     1  UNL1        0.0000
      7 C           6.2142    6.8218    6.3693 C.3     1  UNL1        0.0000
      8 C           7.6869    5.3672    4.9870 C.3     1  UNL1        0.0000
      9 C           8.6116    6.5103    7.0163 C.3     1  UNL1        0.0000
     10 C           9.5603    5.3459    1.2691 C.3     1  UNL1        0.0000
     11 C          10.6259    4.7246    2.1764 C.3     1  UNL1        0.0000
     12 C          10.1881    5.7854   -0.0581 C.3     1  UNL1        0.0000
     13 C           8.4366    4.3361    1.0065 C.3     1  UNL1        0.0000
     14 C          11.3712    9.6499    2.8763 C.3     1  UNL1        0.0000
     15 C          10.4489    9.8777    1.6781 C.3     1  UNL1        0.0000
     16 C          12.4760    8.6798    2.4494 C.3     1  UNL1        0.0000
     17 C          12.0215   10.9778    3.2694 C.3     1  UNL1        0.0000
     18 C           9.6219   10.2737    5.4836 C.ar    1  UNL1        0.0000
     19 C           8.8882   11.3117    4.9060 C.ar    1  UNL1        0.0000
     20 C           8.4152   12.3647    5.6781 C.ar    1  UNL1        0.0000
     21 C           8.6663   12.3990    7.0398 C.ar    1  UNL1        0.0000
     22 C           9.3688   11.3609    7.6314 C.ar    1  UNL1        0.0000
     23 C           9.8304   10.3083    6.8620 C.ar    1  UNL1        0.0000
     24 C          11.6948    7.9806    5.4183 C.ar    1  UNL1        0.0000
     25 C          11.8010    6.5937    5.3672 C.ar    1  UNL1        0.0000
     26 C          12.7852    5.9156    6.0637 C.ar    1  UNL1        0.0000
     27 C          13.6972    6.6195    6.8312 C.ar    1  UNL1        0.0000
     28 C          13.6167    8.0007    6.8900 C.ar    1  UNL1        0.0000
     29 C          12.6284    8.6692    6.1899 C.ar    1  UNL1        0.0000
     30 H           5.5287    7.0424    5.5430 H       1  UNL1        0.0000
     31 H           6.1782    7.6369    7.0898 H       1  UNL1        0.0000
     32 H           5.9015    5.9059    6.8702 H       1  UNL1        0.0000
     33 H           7.0285    5.4537    4.1246 H       1  UNL1        0.0000
     34 H           7.3604    4.5246    5.5938 H       1  UNL1        0.0000
     35 H           8.6989    5.1634    4.6450 H       1  UNL1        0.0000
     36 H           9.6297    6.3581    6.6669 H       1  UNL1        0.0000
     37 H           8.3245    5.6683    7.6428 H       1  UNL1        0.0000
     38 H           8.5908    7.4196    7.6139 H       1  UNL1        0.0000
     39 H          11.3969    5.4554    2.4137 H       1  UNL1        0.0000
     40 H          11.0908    3.8774    1.6777 H       1  UNL1        0.0000
     41 H          10.1789    4.3739    3.1044 H       1  UNL1        0.0000
     42 H           9.4381    6.2690   -0.6787 H       1  UNL1        0.0000
     43 H          10.5885    4.9265   -0.5907 H       1  UNL1        0.0000
     44 H          10.9940    6.4935    0.1220 H       1  UNL1        0.0000
     45 H           7.6690    4.7880    0.3830 H       1  UNL1        0.0000
     46 H           7.9811    4.0269    1.9449 H       1  UNL1        0.0000
     47 H           8.8308    3.4579    0.5012 H       1  UNL1        0.0000
     48 H           9.5960   10.4968    1.9451 H       1  UNL1        0.0000
     49 H          10.0679    8.9289    1.3097 H       1  UNL1        0.0000
     50 H          10.9944   10.3652    0.8696 H       1  UNL1        0.0000
     51 H          13.1910    8.5210    3.2530 H       1  UNL1        0.0000
     52 H          13.0121    9.0730    1.5861 H       1  UNL1        0.0000
     53 H          12.0529    7.7161    2.1770 H       1  UNL1        0.0000
     54 H          11.2737   11.7075    3.5685 H       1  UNL1        0.0000
     55 H          12.5821   11.3861    2.4288 H       1  UNL1        0.0000
     56 H          12.7125   10.8374    4.0968 H       1  UNL1        0.0000
     57 H           8.7597   11.3406    3.8290 H       1  UNL1        0.0000
     58 H           7.8812   13.1819    5.2113 H       1  UNL1        0.0000
     59 H           8.3241   13.2320    7.6373 H       1  UNL1        0.0000
     60 H           9.5619   11.3778    8.6950 H       1  UNL1        0.0000
     61 H          10.3819    9.5088    7.3349 H       1  UNL1        0.0000
     62 H          11.0970    6.0405    4.7642 H       1  UNL1        0.0000
     63 H          12.8434    4.8378    6.0075 H       1  UNL1        0.0000
     64 H          14.4679    6.0956    7.3777 H       1  UNL1        0.0000
     65 H          14.3285    8.5574    7.4830 H       1  UNL1        0.0000
     66 H          12.5788    9.7469    6.2425 H       1  UNL1        0.0000
@<TRIPOS>BOND
     1    42    12    1
     2    43    12    1
     3    12    44    1
     4    12    10    1
     5    45    13    1
     6    47    13    1
     7    50    15    1
     8    13    10    1
     9    13    46    1
    10    10     3    1
    11    10    11    1
    12    49    15    1
    13    52    16    1
    14    40    11    1
    15    15    48    1
    16    15    14    1
    17     3     5    1
    18    11    39    1
    19    11    41    1
    20    53    16    1
    21    55    17    1
    22    16    14    1
    23    16    51    1
    24    14    17    1
    25    14     1    1
    26     5     4    1
    27    17    54    1
    28    17    56    1
    29    57    19    1
    30     4     1    1
    31     4     2    1
    32    33     8    1
    33     1    24    1
    34     1    18    1
    35    35     8    1
    36    62    25    1
    37    19    18   ar
    38    19    20   ar
    39     8    34    1
    40     8     6    1
    41     2     6    1
    42    58    20    1
    43    25    24   ar
    44    25    26   ar
    45    24    29   ar
    46    18    23   ar
    47    30     7    1
    48    20    21   ar
    49     6     7    1
    50     6     9    1
    51    63    26    1
    52    26    27   ar
    53    29    66    1
    54    29    28   ar
    55     7    32    1
    56     7    31    1
    57    36     9    1
    58    27    28   ar
    59    27    64    1
    60    23    61    1
    61    23    22   ar
    62    28    65    1
    63     9    38    1
    64     9    37    1
    65    21    22   ar
    66    21    59    1
    67    22    60    1
