@<TRIPOS>MOLECULE
1
 9 8 0 0 0
SMALL
GASTEIGER

@<TRIPOS>ATOM
      1 N           5.1447    8.1276    3.6827 N.3     1  UNL1       -0.2469
      2 C           3.7772    8.5775    3.8133 C.3     1  UNL1        0.0021
      3 C           5.2331    7.1388    2.6297 C.3     1  UNL1        0.0021
      4 H           3.6681    9.1995    4.7060 H       1  UNL1        0.0405
      5 H           3.0872    7.7173    3.9145 H       1  UNL1        0.0405
      6 H           3.4291    9.1557    2.9296 H       1  UNL1        0.0405
      7 H           6.2765    6.8593    2.4536 H       1  UNL1        0.0405
      8 H           4.8048    7.4977    1.6729 H       1  UNL1        0.0405
      9 H           4.6644    6.2248    2.8972 H       1  UNL1        0.0405
@<TRIPOS>BOND
     1     8     3    1
     2     7     3    1
     3     3     9    1
     4     3     1    1
     5     6     2    1
     6     1     2    1
     7     2     5    1
     8     2     4    1
