@<TRIPOS>MOLECULE
1
 9 8 0 0 0
SMALL
GASTEIGER

@<TRIPOS>ATOM
      1 N           7.1724   10.3052    2.5303 N.3     1  UNL1       -0.2469
      2 C           6.4276   11.5409    2.3821 C.3     1  UNL1        0.0021
      3 C           7.0622    9.5618    1.2898 C.3     1  UNL1        0.0021
      4 H           6.4993   12.1460    3.2914 H       1  UNL1        0.0405
      5 H           5.3522   11.3659    2.1520 H       1  UNL1        0.0405
      6 H           6.8298   12.1406    1.5413 H       1  UNL1        0.0405
      7 H           7.5841    8.6052    1.3708 H       1  UNL1        0.0405
      8 H           7.5183   10.1289    0.4558 H       1  UNL1        0.0405
      9 H           6.0072    9.3784    0.9990 H       1  UNL1        0.0405
@<TRIPOS>BOND
     1     8     3    1
     2     9     3    1
     3     3     7    1
     4     3     1    1
     5     6     2    1
     6     5     2    1
     7     2     1    1
     8     2     4    1
