@<TRIPOS>MOLECULE
1
 9 8 0 0 0
SMALL
GASTEIGER

@<TRIPOS>ATOM
      1 N           4.1515    4.4192   13.4199 N.3     1  UNL1       -0.2469
      2 C           3.4307    4.7952   14.6094 C.3     1  UNL1        0.0021
      3 C           4.1736    2.9803   13.3249 C.3     1  UNL1        0.0021
      4 H           3.4092    5.8824   14.7223 H       1  UNL1        0.0405
      5 H           3.9162    4.3768   15.5139 H       1  UNL1        0.0405
      6 H           2.3807    4.4293   14.6175 H       1  UNL1        0.0405
      7 H           4.7962    2.6594   12.4842 H       1  UNL1        0.0405
      8 H           3.1574    2.5389   13.2104 H       1  UNL1        0.0405
      9 H           4.6038    2.5303   14.2420 H       1  UNL1        0.0405
@<TRIPOS>BOND
     1     7     3    1
     2     8     3    1
     3     3     1    1
     4     3     9    1
     5     1     2    1
     6     2     6    1
     7     2     4    1
     8     2     5    1
