@<TRIPOS>MOLECULE
1
 9 8 0 0 0
SMALL
GASTEIGER

@<TRIPOS>ATOM
      1 N           3.9705    7.5024   11.5899 N.3     1  UNL1       -0.2469
      2 C           3.7929    8.3372   12.7499 C.3     1  UNL1        0.0021
      3 H           3.6789    7.7250   13.6496 H       1  UNL1        0.0405
      4 H           2.8984    8.9921   12.6619 H       1  UNL1        0.0405
      5 H           4.6549    9.0198   12.9101 H       1  UNL1        0.0405
      6 C           4.1483    8.3373   10.4300 C.3     1  UNL1        0.0021
      7 H           4.2622    7.7251    9.5303 H       1  UNL1        0.0405
      8 H           5.0429    8.9920   10.5180 H       1  UNL1        0.0405
      9 H           3.2864    9.0200   10.2698 H       1  UNL1        0.0405
@<TRIPOS>BOND
     1     7     6    1
     2     9     6    1
     3     6     8    1
     4     6     1    1
     5     1     2    1
     6     4     2    1
     7     2     5    1
     8     2     3    1
