@<TRIPOS>MOLECULE
1
 9 8 0 0 0
SMALL
GASTEIGER

@<TRIPOS>ATOM
      1 N           9.6928    2.4354    2.6043 N.3     1  UNL1       -0.2469
      2 C           9.1754    1.8176    3.8008 C.3     1  UNL1        0.0021
      3 C           8.5979    2.9687    1.8318 C.3     1  UNL1        0.0021
      4 H           9.9906    1.4249    4.4083 H       1  UNL1        0.0405
      5 H           8.5000    0.9862    3.5530 H       1  UNL1        0.0405
      6 H           8.6048    2.5357    4.4099 H       1  UNL1        0.0405
      7 H           8.9898    3.5944    1.0325 H       1  UNL1        0.0405
      8 H           7.9151    3.5687    2.4520 H       1  UNL1        0.0405
      9 H           8.0062    2.1551    1.3896 H       1  UNL1        0.0405
@<TRIPOS>BOND
     1     7     3    1
     2     9     3    1
     3     3     8    1
     4     3     1    1
     5     1     2    1
     6     5     2    1
     7     2     4    1
     8     2     6    1
