@<TRIPOS>MOLECULE
1
 9 8 0 0 0
SMALL
GASTEIGER

@<TRIPOS>ATOM
      1 N           3.7897    4.4192    9.7599 N.3     1  UNL1       -0.2469
      2 C           4.5105    4.7953    8.5705 C.3     1  UNL1        0.0021
      3 H           4.5321    5.8824    8.4576 H       1  UNL1        0.0405
      4 H           4.0250    4.3768    7.6660 H       1  UNL1        0.0405
      5 H           5.5605    4.4293    8.5624 H       1  UNL1        0.0405
      6 C           3.7676    2.9804    9.8549 C.3     1  UNL1        0.0021
      7 H           3.1450    2.6594   10.6957 H       1  UNL1        0.0405
      8 H           4.7837    2.5389    9.9694 H       1  UNL1        0.0405
      9 H           3.3374    2.5303    8.9378 H       1  UNL1        0.0405
@<TRIPOS>BOND
     1     4     2    1
     2     3     2    1
     3     5     2    1
     4     2     1    1
     5     9     6    1
     6     1     6    1
     7     6     8    1
     8     6     7    1
