@<TRIPOS>MOLECULE
1
 9 8 0 0 0
SMALL
GASTEIGER

@<TRIPOS>ATOM
      1 N          13.6425    2.5085    2.5141 N.3     1  UNL1       -0.2469
      2 C          14.2360    3.4086    3.4763 C.3     1  UNL1        0.0021
      3 C          14.4959    1.3485    2.3845 C.3     1  UNL1        0.0021
      4 H          13.6046    4.2859    3.6079 H       1  UNL1        0.0405
      5 H          15.2348    3.7393    3.1589 H       1  UNL1        0.0405
      6 H          14.3530    2.9131    4.4532 H       1  UNL1        0.0405
      7 H          14.1679    0.7354    1.5462 H       1  UNL1        0.0405
      8 H          14.4595    0.7363    3.2990 H       1  UNL1        0.0405
      9 H          15.5419    1.6354    2.2249 H       1  UNL1        0.0405
@<TRIPOS>BOND
     1     7     3    1
     2     9     3    1
     3     3     1    1
     4     3     8    1
     5     1     2    1
     6     5     2    1
     7     2     4    1
     8     2     6    1
