@<TRIPOS>MOLECULE
3
 27 26 0 0 0
SMALL
GASTEIGER

@<TRIPOS>ATOM
      1 SI          7.5242    3.9967    5.0001 Si      1  UNL1        0.0000
      2 SI          8.7852    5.4289    2.5458 Si      1  UNL1        0.0000
      3 N           8.0581    5.3945    4.1204 N.3     1  UNL1        0.0000
      4 C           8.4395    3.9506    6.6917 C.3     1  UNL1        0.0000
      5 C           5.6297    4.1462    5.2972 C.3     1  UNL1        0.0000
      6 C           7.8354    2.3152    4.1497 C.3     1  UNL1        0.0000
      7 C          10.3479    4.3266    2.4441 C.3     1  UNL1        0.0000
      8 C           7.5596    4.8713    1.1801 C.3     1  UNL1        0.0000
      9 C           9.3276    7.2256    2.1615 C.3     1  UNL1        0.0000
     10 H           7.9504    3.2651    7.3777 H       1  UNL1        0.0000
     11 H           8.4511    4.9343    7.1669 H       1  UNL1        0.0000
     12 H           9.4674    3.6130    6.5814 H       1  UNL1        0.0000
     13 H           5.0667    3.9715    4.3833 H       1  UNL1        0.0000
     14 H           5.3645    5.1338    5.6805 H       1  UNL1        0.0000
     15 H           5.2921    3.4150    6.0259 H       1  UNL1        0.0000
     16 H           7.3100    1.5220    4.6704 H       1  UNL1        0.0000
     17 H           7.4948    2.3182    3.1213 H       1  UNL1        0.0000
     18 H           8.8891    2.0626    4.1468 H       1  UNL1        0.0000
     19 H          10.8947    4.5243    1.5278 H       1  UNL1        0.0000
     20 H          10.0939    3.2729    2.4519 H       1  UNL1        0.0000
     21 H          11.0187    4.5164    3.2753 H       1  UNL1        0.0000
     22 H           6.8430    5.6537    0.9507 H       1  UNL1        0.0000
     23 H           7.0019    3.9899    1.4787 H       1  UNL1        0.0000
     24 H           8.0896    4.6292    0.2647 H       1  UNL1        0.0000
     25 H           8.7353    7.9487    2.7214 H       1  UNL1        0.0000
     26 H          10.3722    7.3821    2.4130 H       1  UNL1        0.0000
     27 H           9.2082    7.4455    1.1054 H       1  UNL1        0.0000
@<TRIPOS>BOND
     1    24     8    1
     2    22     8    1
     3    27     9    1
     4     8    23    1
     5     8     2    1
     6    19     7    1
     7     9    26    1
     8     9     2    1
     9     9    25    1
    10     7    20    1
    11     7     2    1
    12     7    21    1
    13     2     3    1
    14    17     6    1
    15     3     1    1
    16    18     6    1
    17     6    16    1
    18     6     1    1
    19    13     5    1
    20     1     5    1
    21     1     4    1
    22     5    14    1
    23     5    15    1
    24    12     4    1
    25     4    11    1
    26     4    10    1
