@<TRIPOS>MOLECULE
3
 27 26 0 0 0
SMALL
GASTEIGER

@<TRIPOS>ATOM
      1 SI          2.3699    5.0748    3.4515 Si      1  UNL1        0.0000
      2 SI          3.3103    7.6415    4.5979 Si      1  UNL1        0.0000
      3 N           3.6755    6.0696    3.9908 N.3     1  UNL1        0.0000
      4 C           3.0454    3.4954    2.6082 C.3     1  UNL1        0.0000
      5 H           3.7800    3.7205    1.8417 H       1  UNL1        0.0000
      6 H           2.2373    2.9474    2.1323 H       1  UNL1        0.0000
      7 H           3.5055    2.8310    3.3328 H       1  UNL1        0.0000
      8 C           1.1640    4.4939    4.8289 C.3     1  UNL1        0.0000
      9 H           1.5821    4.6573    5.8147 H       1  UNL1        0.0000
     10 H           0.9296    3.4378    4.7387 H       1  UNL1        0.0000
     11 H           0.2272    5.0384    4.7772 H       1  UNL1        0.0000
     12 C           2.9068    8.9311    3.2291 C.3     1  UNL1        0.0000
     13 H           3.7487    9.0989    2.5648 H       1  UNL1        0.0000
     14 H           2.6446    9.8883    3.6693 H       1  UNL1        0.0000
     15 H           2.0682    8.6134    2.6206 H       1  UNL1        0.0000
     16 C           4.8263    8.3337    5.5454 C.3     1  UNL1        0.0000
     17 H           4.6345    8.3457    6.6137 H       1  UNL1        0.0000
     18 H           5.0407    9.3545    5.2471 H       1  UNL1        0.0000
     19 H           5.7202    7.7394    5.3553 H       1  UNL1        0.0000
     20 C           1.1847    5.8828    2.1713 C.3     1  UNL1        0.0000
     21 H           0.6965    6.7492    2.6039 H       1  UNL1        0.0000
     22 H           0.4054    5.1816    1.8883 H       1  UNL1        0.0000
     23 H           1.6769    6.2028    1.2591 H       1  UNL1        0.0000
     24 C           1.8512    7.7152    5.8346 C.3     1  UNL1        0.0000
     25 H           0.9201    7.4493    5.3484 H       1  UNL1        0.0000
     26 H           1.7335    8.7108    6.2515 H       1  UNL1        0.0000
     27 H           1.9980    7.0252    6.6598 H       1  UNL1        0.0000
@<TRIPOS>BOND
     1    23    20    1
     2     5     4    1
     3    22    20    1
     4     6     4    1
     5    20    21    1
     6    20     1    1
     7    13    12    1
     8     4     7    1
     9     4     1    1
    10    15    12    1
    11    12    14    1
    12    12     2    1
    13     1     3    1
    14     1     8    1
    15     3     2    1
    16     2    16    1
    17     2    24    1
    18    10     8    1
    19    11     8    1
    20     8     9    1
    21    18    16    1
    22    25    24    1
    23    19    16    1
    24    16    17    1
    25    24    26    1
    26    24    27    1
