@<TRIPOS>MOLECULE
3
 27 26 0 0 0
SMALL
GASTEIGER

@<TRIPOS>ATOM
      1 SI          9.1904    5.0747    4.7559 Si      1  UNL1        0.0000
      2 SI          8.2500    7.6415    3.6094 Si      1  UNL1        0.0000
      3 N           7.8847    6.0696    4.2165 N.3     1  UNL1        0.0000
      4 C           8.5149    3.4954    5.5992 C.3     1  UNL1        0.0000
      5 H           7.7803    3.7205    6.3657 H       1  UNL1        0.0000
      6 H           9.3230    2.9474    6.0751 H       1  UNL1        0.0000
      7 H           8.0548    2.8310    4.8746 H       1  UNL1        0.0000
      8 C          10.3962    4.4939    3.3786 C.3     1  UNL1        0.0000
      9 H           9.9781    4.6567    2.3928 H       1  UNL1        0.0000
     10 H          10.6311    3.4379    3.4690 H       1  UNL1        0.0000
     11 H          11.3329    5.0385    3.4299 H       1  UNL1        0.0000
     12 C           8.6534    8.9311    4.9782 C.3     1  UNL1        0.0000
     13 H           7.8116    9.0989    5.6425 H       1  UNL1        0.0000
     14 H           8.9158    9.8883    4.5379 H       1  UNL1        0.0000
     15 H           9.4921    8.6133    5.5866 H       1  UNL1        0.0000
     16 C           6.7340    8.3337    2.6619 C.3     1  UNL1        0.0000
     17 H           6.9258    8.3455    1.5935 H       1  UNL1        0.0000
     18 H           6.5197    9.3545    2.9601 H       1  UNL1        0.0000
     19 H           5.8400    7.7394    2.8520 H       1  UNL1        0.0000
     20 C          10.3756    5.8828    6.0361 C.3     1  UNL1        0.0000
     21 H          10.8638    6.7492    5.6035 H       1  UNL1        0.0000
     22 H          11.1548    5.1816    6.3191 H       1  UNL1        0.0000
     23 H           9.8833    6.2028    6.9483 H       1  UNL1        0.0000
     24 C           9.7091    7.7152    2.3728 C.3     1  UNL1        0.0000
     25 H          10.6402    7.4493    2.8589 H       1  UNL1        0.0000
     26 H           9.8268    8.7106    1.9558 H       1  UNL1        0.0000
     27 H           9.5623    7.0251    1.5476 H       1  UNL1        0.0000
@<TRIPOS>BOND
     1    27    24    1
     2    17    16    1
     3    26    24    1
     4    24    25    1
     5    24     2    1
     6     9     8    1
     7    16    19    1
     8    16    18    1
     9    16     2    1
    10     8    11    1
    11     8    10    1
    12     8     1    1
    13     2     3    1
    14     2    12    1
    15     3     1    1
    16    14    12    1
    17     1     4    1
    18     1    20    1
    19     7     4    1
    20    12    15    1
    21    12    13    1
    22     4     6    1
    23     4     5    1
    24    21    20    1
    25    20    22    1
    26    20    23    1
