@<TRIPOS>MOLECULE
1
 9 8 0 0 0
SMALL
GASTEIGER

@<TRIPOS>ATOM
      1 N           8.9715    1.8933    3.2660 N.3     1  UNL1       -0.2469
      2 C          10.2672    1.6060    3.8418 C.3     1  UNL1        0.0021
      3 H          10.3470    1.9582    4.8914 H       1  UNL1        0.0405
      4 H          11.0599    2.0846    3.2504 H       1  UNL1        0.0405
      5 H          10.4629    0.5184    3.8569 H       1  UNL1        0.0405
      6 C           7.9112    1.3138    4.0672 C.3     1  UNL1        0.0021
      7 H           7.9770    0.2107    4.0723 H       1  UNL1        0.0405
      8 H           6.9420    1.6099    3.6454 H       1  UNL1        0.0405
      9 H           7.9644    1.6406    5.1262 H       1  UNL1        0.0405
@<TRIPOS>BOND
     1     4     2    1
     2     1     2    1
     3     1     6    1
     4     8     6    1
     5     2     5    1
     6     2     3    1
     7     6     7    1
     8     6     9    1
