@<TRIPOS>MOLECULE
1
 27 26 0 0 0
SMALL
GASTEIGER

@<TRIPOS>ATOM
      1 N           6.9778    2.9238    6.8644 N.3     1  UNL1        0.0000
      2 SI          7.5758    1.3716    7.3247 Si      1  UNL1        0.0000
      3 C           9.0778    1.0054    6.2103 C.3     1  UNL1        0.0000
      4 H           8.8112    1.2407    5.1841 H       1  UNL1        0.0000
      5 H           9.3600   -0.0409    6.2525 H       1  UNL1        0.0000
      6 H           9.9505    1.5865    6.4839 H       1  UNL1        0.0000
      7 C           6.2178    0.0861    6.9318 C.3     1  UNL1        0.0000
      8 H           5.3268    0.2499    7.5298 H       1  UNL1        0.0000
      9 H           6.5441   -0.9350    7.1010 H       1  UNL1        0.0000
     10 H           5.9428    0.1884    5.8859 H       1  UNL1        0.0000
     11 C           8.0835    1.2444    9.1622 C.3     1  UNL1        0.0000
     12 H           8.8661    1.9533    9.4081 H       1  UNL1        0.0000
     13 H           8.4501    0.2501    9.3955 H       1  UNL1        0.0000
     14 H           7.2396    1.4463    9.8122 H       1  UNL1        0.0000
     15 SI          6.1952    4.1123    7.8311 Si      1  UNL1        0.0000
     16 C           7.3502    4.8302    9.1758 C.3     1  UNL1        0.0000
     17 H           7.5543    4.1011    9.9512 H       1  UNL1        0.0000
     18 H           6.9011    5.6974    9.6501 H       1  UNL1        0.0000
     19 H           8.2989    5.1387    8.7509 H       1  UNL1        0.0000
     20 C           5.7533    5.5113    6.6077 C.3     1  UNL1        0.0000
     21 H           6.2809    6.4290    6.8410 H       1  UNL1        0.0000
     22 H           4.6919    5.7305    6.5992 H       1  UNL1        0.0000
     23 H           6.0496    5.2008    5.6086 H       1  UNL1        0.0000
     24 C           4.6276    3.4925    8.7435 C.3     1  UNL1        0.0000
     25 H           3.8308    3.2304    8.0558 H       1  UNL1        0.0000
     26 H           4.2431    4.2483    9.4216 H       1  UNL1        0.0000
     27 H           4.8556    2.6096    9.3322 H       1  UNL1        0.0000
@<TRIPOS>BOND
     1     4     3    1
     2    23    20    1
     3    10     7    1
     4     3     5    1
     5     3     6    1
     6     3     2    1
     7    22    20    1
     8    20    21    1
     9    20    15    1
    10     1     2    1
    11     1    15    1
    12     7     9    1
    13     7     2    1
    14     7     8    1
    15     2    11    1
    16    15    24    1
    17    15    16    1
    18    25    24    1
    19    24    27    1
    20    24    26    1
    21    19    16    1
    22    11    13    1
    23    11    12    1
    24    11    14    1
    25    16    18    1
    26    16    17    1
