@<TRIPOS>MOLECULE
1
 50 53 0 0 0
SMALL
GASTEIGER

@<TRIPOS>ATOM
      1 N           7.3303    4.0946    3.5259 N.3     1  UNL1       -0.2424
      2 H           6.8607    3.9542    2.6311 H       1  UNL1        0.1417
      3 C           7.9457    5.2522    3.6179 C.3     1  UNL1        0.0900
      4 C           7.8687    6.2786    2.6558 C.3     1  UNL1        0.0223
      5 H           8.5896    7.0827    2.6476 H       1  UNL1        0.0384
      6 P           7.0084    6.0561    1.1727 P.3     1  UNL1       -0.0368
      7 C           8.7311    5.5102    4.8373 C.ar    1  UNL1       -0.0234
      8 C           9.3627    4.4478    5.4829 C.ar    1  UNL1       -0.0567
      9 H           9.2831    3.4577    5.0567 H       1  UNL1        0.0621
     10 C          10.1224    4.6708    6.6147 C.ar    1  UNL1       -0.0614
     11 H          10.6155    3.8440    7.1030 H       1  UNL1        0.0618
     12 C          10.2524    5.9513    7.1290 C.ar    1  UNL1       -0.0617
     13 H          10.8464    6.1251    8.0146 H       1  UNL1        0.0618
     14 C           9.6161    7.0100    6.5024 C.ar    1  UNL1       -0.0614
     15 H           9.7070    8.0087    6.9048 H       1  UNL1        0.0618
     16 C           8.8615    6.7937    5.3646 C.ar    1  UNL1       -0.0567
     17 H           8.3544    7.6224    4.8935 H       1  UNL1        0.0621
     18 C           7.3635    7.5087    0.1558 C.ar    1  UNL1       -0.0188
     19 C           7.0838    8.7517    0.7192 C.ar    1  UNL1       -0.0539
     20 H           6.6858    8.7958    1.7238 H       1  UNL1        0.0624
     21 C           7.3189    9.9063   -0.0015 C.ar    1  UNL1       -0.0612
     22 H           7.1052   10.8697    0.4370 H       1  UNL1        0.0618
     23 C           7.8240    9.8270   -1.2906 C.ar    1  UNL1       -0.0617
     24 H           8.0048   10.7291   -1.8555 H       1  UNL1        0.0618
     25 C           8.0930    8.5908   -1.8563 C.ar    1  UNL1       -0.0612
     26 H           8.4841    8.5304   -2.8612 H       1  UNL1        0.0618
     27 C           7.8609    7.4305   -1.1393 C.ar    1  UNL1       -0.0539
     28 H           8.0709    6.4662   -1.5802 H       1  UNL1        0.0624
     29 C           7.4180    4.6212    0.1155 C.ar    1  UNL1       -0.0188
     30 C           8.7712    4.3044    0.0264 C.ar    1  UNL1       -0.0539
     31 H           9.4848    4.8871    0.5951 H       1  UNL1        0.0624
     32 C           9.1881    3.2633   -0.7800 C.ar    1  UNL1       -0.0612
     33 H          10.2384    3.0221   -0.8511 H       1  UNL1        0.0618
     34 C           8.2554    2.5322   -1.4989 C.ar    1  UNL1       -0.0617
     35 H           8.5780    1.7202   -2.1328 H       1  UNL1        0.0618
     36 C           6.9066    2.8321   -1.3938 C.ar    1  UNL1       -0.0612
     37 H           6.1813    2.2561   -1.9492 H       1  UNL1        0.0618
     38 C           6.4815    3.8688   -0.5818 C.ar    1  UNL1       -0.0539
     39 H           5.4282    4.0896   -0.4932 H       1  UNL1        0.0624
     40 C           5.2011    6.0842    1.3748 C.ar    1  UNL1       -0.0188
     41 C           4.3859    6.3374    0.2728 C.ar    1  UNL1       -0.0539
     42 H           4.8311    6.4630   -0.7058 H       1  UNL1        0.0624
     43 C           3.0167    6.4290    0.4376 C.ar    1  UNL1       -0.0612
     44 H           2.3837    6.6165   -0.4174 H       1  UNL1        0.0618
     45 C           2.4574    6.2848    1.6979 C.ar    1  UNL1       -0.0617
     46 H           1.3870    6.3530    1.8212 H       1  UNL1        0.0618
     47 C           3.2699    6.0637    2.7991 C.ar    1  UNL1       -0.0612
     48 H           2.8346    5.9588    3.7809 H       1  UNL1        0.0618
     49 C           4.6400    5.9719    2.6418 C.ar    1  UNL1       -0.0539
     50 H           5.2829    5.8037    3.4928 H       1  UNL1        0.0624
@<TRIPOS>BOND
     1    26    25    1
     2    35    34    1
     3    37    36    1
     4    25    23   ar
     5    25    27   ar
     6    24    23    1
     7    28    27    1
     8    34    36   ar
     9    34    32   ar
    10    36    38   ar
    11    23    21   ar
    12    27    18   ar
    13    33    32    1
    14    32    30   ar
    15    42    41    1
    16    38    39    1
    17    38    29   ar
    18    44    43    1
    19    21    22    1
    20    21    19   ar
    21    30    29   ar
    22    30    31    1
    23    29     6    1
    24    18    19   ar
    25    18     6    1
    26    41    43   ar
    27    41    40   ar
    28    43    45   ar
    29    19    20    1
    30     6    40    1
    31     6     4    1
    32    40    49   ar
    33    45    46    1
    34    45    47   ar
    35     2     1    1
    36    49    47   ar
    37    49    50    1
    38     5     4    1
    39     4     3    1
    40    47    48    1
    41     1     3    1
    42     3     7    1
    43     7    16   ar
    44     7     8   ar
    45    17    16    1
    46     9     8    1
    47    16    14   ar
    48     8    10   ar
    49    14    15    1
    50    14    12   ar
    51    10    11    1
    52    10    12   ar
    53    12    13    1
