@<TRIPOS>MOLECULE
1
 27 26 0 0 0
SMALL
GASTEIGER

@<TRIPOS>ATOM
      1 N           6.2601    1.7752    3.5691 N.3     1  UNL1        0.0000
      2 SI          4.5512    1.7790    3.5449 Si      1  UNL1        0.0000
      3 C           4.0279    2.8978    4.9908 C.3     1  UNL1        0.0000
      4 H           4.5372    2.5827    5.8951 H       1  UNL1        0.0000
      5 H           2.9599    2.8782    5.1757 H       1  UNL1        0.0000
      6 H           4.3125    3.9228    4.7898 H       1  UNL1        0.0000
      7 C           3.8063    2.5024    1.9263 C.3     1  UNL1        0.0000
      8 H           4.3022    3.4248    1.6441 H       1  UNL1        0.0000
      9 H           2.7478    2.7200    2.0318 H       1  UNL1        0.0000
     10 H           3.9189    1.8034    1.1051 H       1  UNL1        0.0000
     11 C           3.7255    0.0646    3.7547 C.3     1  UNL1        0.0000
     12 H           4.0712   -0.6194    2.9875 H       1  UNL1        0.0000
     13 H           2.6454    0.1340    3.6703 H       1  UNL1        0.0000
     14 H           3.9535   -0.3796    4.7172 H       1  UNL1        0.0000
     15 SI          7.2612    0.6688    2.7335 Si      1  UNL1        0.0000
     16 C           6.5847    0.2568    0.9891 C.3     1  UNL1        0.0000
     17 H           5.6805   -0.3376    1.0603 H       1  UNL1        0.0000
     18 H           7.3042   -0.3068    0.4031 H       1  UNL1        0.0000
     19 H           6.3421    1.1584    0.4394 H       1  UNL1        0.0000
     20 C           7.4509   -1.0433    3.5782 C.3     1  UNL1        0.0000
     21 H           7.8704   -0.9668    4.5739 H       1  UNL1        0.0000
     22 H           8.0933   -1.6980    2.9960 H       1  UNL1        0.0000
     23 H           6.4856   -1.5305    3.6688 H       1  UNL1        0.0000
     24 C           8.9980    1.4419    2.5046 C.3     1  UNL1        0.0000
     25 H           9.0258    2.4354    2.9381 H       1  UNL1        0.0000
     26 H           9.2512    1.5338    1.4536 H       1  UNL1        0.0000
     27 H           9.7715    0.8454    2.9751 H       1  UNL1        0.0000
@<TRIPOS>BOND
     1    18    16    1
     2    19    16    1
     3    16    17    1
     4    16    15    1
     5    10     7    1
     6    26    24    1
     7     8     7    1
     8     7     9    1
     9     7     2    1
    10    24    15    1
    11    24    25    1
    12    24    27    1
    13    15     1    1
    14    15    20    1
    15    12    11    1
    16    22    20    1
    17     2     1    1
    18     2    11    1
    19     2     3    1
    20    20    23    1
    21    20    21    1
    22    13    11    1
    23    11    14    1
    24     6     3    1
    25     3     5    1
    26     3     4    1
