@<TRIPOS>MOLECULE
1
 9 8 0 0 0
SMALL
GASTEIGER

@<TRIPOS>ATOM
      1 N          11.2532    3.9064    9.9317 N.3     1  UNL1       -0.2469
      2 C          11.5931    4.3471   11.2679 C.3     1  UNL1        0.0021
      3 C          11.7194    4.9019    8.9915 C.3     1  UNL1        0.0021
      4 H          11.2808    3.6100   12.0047 H       1  UNL1        0.0405
      5 H          11.1042    5.3046   11.5073 H       1  UNL1        0.0405
      6 H          12.6765    4.4948   11.3645 H       1  UNL1        0.0405
      7 H          11.4666    4.6018    7.9755 H       1  UNL1        0.0405
      8 H          12.8071    5.0344    9.0569 H       1  UNL1        0.0405
      9 H          11.2573    5.8820    9.1941 H       1  UNL1        0.0405
@<TRIPOS>BOND
     1     7     3    1
     2     3     8    1
     3     3     9    1
     4     3     1    1
     5     1     2    1
     6     2     6    1
     7     2     5    1
     8     2     4    1
