@<TRIPOS>MOLECULE
1
 9 8 0 0 0
SMALL
GASTEIGER

@<TRIPOS>ATOM
      1 N           7.8369    2.8708    8.6172 N.3     1  UNL1       -0.2469
      2 C           6.7585    1.9341    8.7924 C.3     1  UNL1        0.0021
      3 C           7.3451    4.1559    8.1982 C.3     1  UNL1        0.0021
      4 H           7.1561    0.9467    9.0286 H       1  UNL1        0.0405
      5 H           6.1366    1.8587    7.8896 H       1  UNL1        0.0405
      6 H           6.1073    2.2477    9.6236 H       1  UNL1        0.0405
      7 H           8.1871    4.8053    7.9445 H       1  UNL1        0.0405
      8 H           6.7667    4.6329    9.0063 H       1  UNL1        0.0405
      9 H           6.6891    4.0790    7.3202 H       1  UNL1        0.0405
@<TRIPOS>BOND
     1     9     3    1
     2     5     2    1
     3     7     3    1
     4     3     1    1
     5     3     8    1
     6     1     2    1
     7     2     4    1
     8     2     6    1
