@<TRIPOS>MOLECULE
1
 9 8 0 0 0
SMALL
GASTEIGER

@<TRIPOS>ATOM
      1 N          10.5119    2.2438    7.7605 N.3     1  UNL1       -0.2469
      2 C          11.9232    1.9966    7.5768 C.3     1  UNL1        0.0021
      3 C           9.8486    2.0266    6.4989 C.3     1  UNL1        0.0021
      4 H          12.4529    2.2107    8.5013 H       1  UNL1        0.0405
      5 H          12.3362    2.6205    6.7737 H       1  UNL1        0.0405
      6 H          12.0993    0.9495    7.3013 H       1  UNL1        0.0405
      7 H           8.7795    2.1775    6.6224 H       1  UNL1        0.0405
      8 H          10.0217    1.0060    6.1341 H       1  UNL1        0.0405
      9 H          10.2197    2.7206    5.7322 H       1  UNL1        0.0405
@<TRIPOS>BOND
     1     9     3    1
     2     8     3    1
     3     3     7    1
     4     3     1    1
     5     5     2    1
     6     6     2    1
     7     2     1    1
     8     2     4    1
