@<TRIPOS>MOLECULE
1
 9 8 0 0 0
SMALL
GASTEIGER

@<TRIPOS>ATOM
      1 N           2.6071    5.5895    2.7449 N.3     1  UNL1       -0.2469
      2 C           2.8593    7.0059    2.9001 C.3     1  UNL1        0.0021
      3 C           2.4651    4.9870    4.0495 C.3     1  UNL1        0.0021
      4 H           2.8491    7.4864    1.9222 H       1  UNL1        0.0405
      5 H           3.8346    7.1878    3.3752 H       1  UNL1        0.0405
      6 H           2.0985    7.4846    3.5355 H       1  UNL1        0.0405
      7 H           2.2620    3.9252    3.9309 H       1  UNL1        0.0405
      8 H           1.6414    5.4449    4.6193 H       1  UNL1        0.0405
      9 H           3.3781    5.1072    4.6528 H       1  UNL1        0.0405
@<TRIPOS>BOND
     1     4     2    1
     2     1     2    1
     3     1     3    1
     4     2     5    1
     5     2     6    1
     6     7     3    1
     7     3     8    1
     8     3     9    1
