@<TRIPOS>MOLECULE
1
 9 8 0 0 0
SMALL
GASTEIGER

@<TRIPOS>ATOM
      1 N           1.6633   14.7808   13.6562 N.3     1  UNL1       -0.2469
      2 C           2.4515   15.9097   13.2264 C.3     1  UNL1        0.0021
      3 C           2.0173   14.4458   15.0143 C.3     1  UNL1        0.0021
      4 H           2.2040   16.1710   12.1983 H       1  UNL1        0.0405
      5 H           3.5292   15.6952   13.2783 H       1  UNL1        0.0405
      6 H           2.2672   16.7919   13.8640 H       1  UNL1        0.0405
      7 H           1.3585   13.6666   15.3928 H       1  UNL1        0.0405
      8 H           1.9465   15.3239   15.6770 H       1  UNL1        0.0405
      9 H           3.0539   14.0808   15.0745 H       1  UNL1        0.0405
@<TRIPOS>BOND
     1     4     2    1
     2     2     5    1
     3     2     1    1
     4     2     6    1
     5     1     3    1
     6     3     9    1
     7     3     7    1
     8     3     8    1
