@<TRIPOS>MOLECULE
1
 9 8 0 0 0
SMALL
GASTEIGER

@<TRIPOS>ATOM
      1 N          -1.5978   15.6381   11.9917 N.3     1  UNL1       -0.2469
      2 C          -1.2340   16.8981   11.3911 C.3     1  UNL1        0.0021
      3 C          -2.9860   15.6767   12.3858 C.3     1  UNL1        0.0021
      4 H          -0.1882   16.8782   11.0846 H       1  UNL1        0.0405
      5 H          -1.3736   17.7347   12.0973 H       1  UNL1        0.0405
      6 H          -1.8505   17.1186   10.5069 H       1  UNL1        0.0405
      7 H          -3.2332   14.7848   12.9594 H       1  UNL1        0.0405
      8 H          -3.6503   15.7233   11.5098 H       1  UNL1        0.0405
      9 H          -3.2032   16.5622   13.0039 H       1  UNL1        0.0405
@<TRIPOS>BOND
     1     6     2    1
     2     4     2    1
     3     2     1    1
     4     2     5    1
     5     8     3    1
     6     1     3    1
     7     3     7    1
     8     3     9    1
