@<TRIPOS>MOLECULE
1
 9 8 0 0 0
SMALL
GASTEIGER

@<TRIPOS>ATOM
      1 N           4.6015    5.0842    0.7449 N.3     1  UNL1       -0.2469
      2 C           5.5766    5.1362    1.8130 C.3     1  UNL1        0.0021
      3 C           5.1668    5.6597   -0.4560 C.3     1  UNL1        0.0021
      4 H           5.1368    4.7468    2.7294 H       1  UNL1        0.0405
      5 H           5.9189    6.1660    1.9912 H       1  UNL1        0.0405
      6 H           6.4627    4.5337    1.5665 H       1  UNL1        0.0405
      7 H           4.4655    5.5286   -1.2768 H       1  UNL1        0.0405
      8 H           6.1188    5.1820   -0.7184 H       1  UNL1        0.0405
      9 H           5.3563    6.7357   -0.3191 H       1  UNL1        0.0405
@<TRIPOS>BOND
     1     7     3    1
     2     8     3    1
     3     3     9    1
     4     3     1    1
     5     1     2    1
     6     6     2    1
     7     2     5    1
     8     2     4    1
