@<TRIPOS>MOLECULE
1
 9 8 0 0 0
SMALL
GASTEIGER

@<TRIPOS>ATOM
      1 N          -1.0442   14.3929   14.5405 N.3     1  UNL1       -0.2469
      2 C          -1.4899   13.3616   15.4462 C.3     1  UNL1        0.0021
      3 C          -1.1933   15.6700   15.2035 C.3     1  UNL1        0.0021
      4 H          -1.3345   12.3791   15.0072 H       1  UNL1        0.0405
      5 H          -2.5569   13.4755   15.6924 H       1  UNL1        0.0405
      6 H          -0.9388   13.4029   16.3988 H       1  UNL1        0.0405
      7 H          -0.8638   16.4814   14.5547 H       1  UNL1        0.0405
      8 H          -0.6022   15.7059   16.1304 H       1  UNL1        0.0405
      9 H          -2.2422   15.8492   15.4832 H       1  UNL1        0.0405
@<TRIPOS>BOND
     1     1     3    1
     2     1     2    1
     3     7     3    1
     4     4     2    1
     5     3     9    1
     6     3     8    1
     7     2     5    1
     8     2     6    1
