@<TRIPOS>MOLECULE
1
 9 8 0 0 0
SMALL
GASTEIGER

@<TRIPOS>ATOM
      1 N           0.8082   14.2855   10.9480 N.3     1  UNL1       -0.2469
      2 C           0.2112   14.5147    9.6518 C.3     1  UNL1        0.0021
      3 C           2.1745   13.8591   10.7437 C.3     1  UNL1        0.0021
      4 H          -0.8516   14.7192    9.7614 H       1  UNL1        0.0405
      5 H           0.3393   13.6419    8.9983 H       1  UNL1        0.0405
      6 H           0.6857   15.3680    9.1437 H       1  UNL1        0.0405
      7 H           2.6419   13.6438   11.7020 H       1  UNL1        0.0405
      8 H           2.7608   14.6335   10.2281 H       1  UNL1        0.0405
      9 H           2.2190   12.9535   10.1237 H       1  UNL1        0.0405
@<TRIPOS>BOND
     1     5     2    1
     2     6     2    1
     3     2     4    1
     4     2     1    1
     5     9     3    1
     6     8     3    1
     7     3     1    1
     8     3     7    1
