@<TRIPOS>MOLECULE
1
 9 8 0 0 0
SMALL
GASTEIGER

@<TRIPOS>ATOM
      1 N           2.2605    2.9386    1.7646 N.3     1  UNL1       -0.2469
      2 C           3.2900    1.9452    1.9725 C.3     1  UNL1        0.0021
      3 C           0.9556    2.3264    1.8644 C.3     1  UNL1        0.0021
      4 H           4.2595    2.4338    2.0475 H       1  UNL1        0.0405
      5 H           3.3231    1.2311    1.1366 H       1  UNL1        0.0405
      6 H           3.1127    1.3756    2.8959 H       1  UNL1        0.0405
      7 H           0.1892    3.0999    1.8608 H       1  UNL1        0.0405
      8 H           0.8581    1.7438    2.7921 H       1  UNL1        0.0405
      9 H           0.7730    1.6421    1.0222 H       1  UNL1        0.0405
@<TRIPOS>BOND
     1     9     3    1
     2     5     2    1
     3     1     3    1
     4     1     2    1
     5     7     3    1
     6     3     8    1
     7     2     4    1
     8     2     6    1
