@<TRIPOS>MOLECULE
1
 9 8 0 0 0
SMALL
GASTEIGER

@<TRIPOS>ATOM
      1 N          -0.5021    1.6788    3.0702 N.3     1  UNL1       -0.2469
      2 C          -0.7889    0.5767    3.9549 C.3     1  UNL1        0.0021
      3 H          -1.8698    0.5017    4.1568 H       1  UNL1        0.0405
      4 H          -0.2643    0.7088    4.9029 H       1  UNL1        0.0405
      5 H          -0.4781   -0.3850    3.5114 H       1  UNL1        0.0405
      6 C          -1.1843    1.5152    1.8071 C.3     1  UNL1        0.0021
      7 H          -2.2784    1.5753    1.9368 H       1  UNL1        0.0405
      8 H          -0.9633    0.5316    1.3574 H       1  UNL1        0.0405
      9 H          -0.8784    2.2942    1.0958 H       1  UNL1        0.0405
@<TRIPOS>BOND
     1     9     6    1
     2     8     6    1
     3     6     7    1
     4     6     1    1
     5     1     2    1
     6     5     2    1
     7     2     3    1
     8     2     4    1
