@<TRIPOS>MOLECULE
1
 27 26 0 0 0
SMALL
GASTEIGER

@<TRIPOS>ATOM
      1 N           7.4511    5.8248    6.8112 N.3     1  UNL1        0.0000
      2 SI          9.1288    5.9215    7.1690 Si      1  UNL1        0.0000
      3 C          10.2221    5.4123    5.6664 C.3     1  UNL1        0.0000
      4 H          10.1043    4.3576    5.4320 H       1  UNL1        0.0000
      5 H          11.2742    5.5849    5.8698 H       1  UNL1        0.0000
      6 H           9.9644    5.9820    4.7791 H       1  UNL1        0.0000
      7 C           9.5076    4.6608    8.5614 C.3     1  UNL1        0.0000
      8 H           9.3111    5.0784    9.5437 H       1  UNL1        0.0000
      9 H          10.5445    4.3398    8.5423 H       1  UNL1        0.0000
     10 H           8.8764    3.7789    8.4363 H       1  UNL1        0.0000
     11 C           9.7797    7.6234    7.7391 C.3     1  UNL1        0.0000
     12 H           9.6243    8.3723    6.9710 H       1  UNL1        0.0000
     13 H          10.8418    7.5898    7.9589 H       1  UNL1        0.0000
     14 H           9.2675    7.9578    8.6340 H       1  UNL1        0.0000
     15 SI          6.4763    7.1669    6.3769 Si      1  UNL1        0.0000
     16 C           6.2254    8.4928    7.7345 C.3     1  UNL1        0.0000
     17 H           5.9145    8.0389    8.6702 H       1  UNL1        0.0000
     18 H           5.4652    9.2139    7.4498 H       1  UNL1        0.0000
     19 H           7.1422    9.0393    7.9229 H       1  UNL1        0.0000
     20 C           4.7354    6.4845    5.9695 C.3     1  UNL1        0.0000
     21 H           4.7859    5.5831    5.3556 H       1  UNL1        0.0000
     22 H           4.1285    7.2109    5.4367 H       1  UNL1        0.0000
     23 H           4.2086    6.2262    6.8822 H       1  UNL1        0.0000
     24 C           7.1223    8.1088    4.8277 C.3     1  UNL1        0.0000
     25 H           7.9956    8.6964    5.0880 H       1  UNL1        0.0000
     26 H           6.3794    8.7893    4.4232 H       1  UNL1        0.0000
     27 H           7.4226    7.4333    4.0313 H       1  UNL1        0.0000
@<TRIPOS>BOND
     1    27    24    1
     2    26    24    1
     3     6     3    1
     4    24    25    1
     5    24    15    1
     6    21    20    1
     7     4     3    1
     8    22    20    1
     9     3     5    1
    10     3     2    1
    11    20    15    1
    12    20    23    1
    13    15     1    1
    14    15    16    1
    15     1     2    1
    16    12    11    1
    17     2    11    1
    18     2     7    1
    19    18    16    1
    20    16    19    1
    21    16    17    1
    22    11    13    1
    23    11    14    1
    24    10     7    1
    25     9     7    1
    26     7     8    1
