@<TRIPOS>MOLECULE
1
 16 16 0 0 0
SMALL
GASTEIGER

@<TRIPOS>ATOM
      1 N           7.2972    1.7571    7.1680 N.3     1  UNL1       -0.2403
      2 C           8.6327    1.2100    6.9927 C.3     1  UNL1        0.0140
      3 H           9.2652    1.9332    6.4610 H       1  UNL1        0.0441
      4 H           8.5867    0.2842    6.3795 H       1  UNL1        0.0441
      5 C           9.3127    0.8330    8.3229 C.3     1  UNL1       -0.0388
      6 H          10.2999    0.4102    8.1209 H       1  UNL1        0.0278
      7 H           9.4432    1.7308    8.9289 H       1  UNL1        0.0278
      8 C           8.4498   -0.1663    9.0861 C.3     1  UNL1       -0.0507
      9 H           8.8862   -0.3748   10.0665 H       1  UNL1        0.0266
     10 H           8.4061   -1.1083    8.5317 H       1  UNL1        0.0266
     11 C           7.0403    0.3977    9.2322 C.3     1  UNL1       -0.0388
     12 H           6.3866   -0.3295    9.7194 H       1  UNL1        0.0278
     13 H           7.0659    1.3034    9.8429 H       1  UNL1        0.0278
     14 C           6.4859    0.7534    7.8427 C.3     1  UNL1        0.0140
     15 H           6.4665   -0.1820    7.2447 H       1  UNL1        0.0441
     16 H           5.4576    1.1185    7.9428 H       1  UNL1        0.0441
@<TRIPOS>BOND
     1     4     2    1
     2     3     2    1
     3     2     1    1
     4     2     5    1
     5     1    14    1
     6    15    14    1
     7    14    16    1
     8    14    11    1
     9     6     5    1
    10     5     7    1
    11     5     8    1
    12    10     8    1
    13     8    11    1
    14     8     9    1
    15    11    12    1
    16    11    13    1
