@<TRIPOS>MOLECULE
1
 27 26 0 0 0
SMALL
GASTEIGER

@<TRIPOS>ATOM
      1 N           4.3965    3.5766    7.6870 N.3     1  UNL1        0.0000
      2 SI          4.3194    4.0815    9.3327 Si      1  UNL1        0.0000
      3 C           3.8529    2.6973   10.5796 C.3     1  UNL1        0.0000
      4 H           2.7910    2.4832   10.5467 H       1  UNL1        0.0000
      5 H           4.0972    2.9836   11.5980 H       1  UNL1        0.0000
      6 H           4.3807    1.7749   10.3607 H       1  UNL1        0.0000
      7 C           6.0814    4.6604    9.8148 C.3     1  UNL1        0.0000
      8 H           6.7718    3.8158    9.8108 H       1  UNL1        0.0000
      9 H           6.0983    5.0841   10.8155 H       1  UNL1        0.0000
     10 H           6.4551    5.4229    9.1302 H       1  UNL1        0.0000
     11 C           3.0926    5.5166    9.6625 C.3     1  UNL1        0.0000
     12 H           3.3709    6.4186    9.1272 H       1  UNL1        0.0000
     13 H           3.0439    5.7626   10.7183 H       1  UNL1        0.0000
     14 H           2.0938    5.2386    9.3432 H       1  UNL1        0.0000
     15 SI          3.0385    2.9911    6.8237 Si      1  UNL1        0.0000
     16 C           1.8609    1.8357    7.7936 C.3     1  UNL1        0.0000
     17 H           2.4080    1.0556    8.3110 H       1  UNL1        0.0000
     18 H           1.1396    1.3566    7.1388 H       1  UNL1        0.0000
     19 H           1.3069    2.3968    8.5379 H       1  UNL1        0.0000
     20 C           1.8991    4.3290    6.0431 C.3     1  UNL1        0.0000
     21 H           1.6298    5.0825    6.7748 H       1  UNL1        0.0000
     22 H           0.9782    3.8900    5.6708 H       1  UNL1        0.0000
     23 H           2.3787    4.8365    5.2118 H       1  UNL1        0.0000
     24 C           3.7128    1.9624    5.3501 C.3     1  UNL1        0.0000
     25 H           4.4858    2.5281    4.8244 H       1  UNL1        0.0000
     26 H           2.9293    1.7284    4.6361 H       1  UNL1        0.0000
     27 H           4.1467    1.0249    5.6820 H       1  UNL1        0.0000
@<TRIPOS>BOND
     1    26    24    1
     2    25    24    1
     3    23    20    1
     4    24    27    1
     5    24    15    1
     6    22    20    1
     7    20    21    1
     8    20    15    1
     9    15     1    1
    10    15    16    1
    11    18    16    1
    12     1     2    1
    13    16    17    1
    14    16    19    1
    15    12    11    1
    16    10     7    1
    17     2    11    1
    18     2     7    1
    19     2     3    1
    20    14    11    1
    21    11    13    1
    22     8     7    1
    23     7     9    1
    24     6     3    1
    25     4     3    1
    26     3     5    1
