@<TRIPOS>MOLECULE
1
 16 16 0 0 0
SMALL
GASTEIGER

@<TRIPOS>ATOM
      1 N           2.0329   14.7868   16.8853 N.pl3   1  UNL1       -0.2666
      2 H           2.6429   15.2466   16.2082 H       1  UNL1        0.1699
      3 C           0.8233   14.6061   16.2835 C.ar    1  UNL1        0.0444
      4 C           0.5714   15.0455   14.9734 C.ar    1  UNL1       -0.0391
      5 H           1.3446   15.5763   14.4315 H       1  UNL1        0.0637
      6 C          -0.6451   14.8112   14.3678 C.ar    1  UNL1       -0.0570
      7 H          -0.8088   15.1620   13.3578 H       1  UNL1        0.0621
      8 C          -1.6626   14.1336   15.0289 C.ar    1  UNL1       -0.0503
      9 C          -1.4261   13.7059   16.3333 C.ar    1  UNL1       -0.0570
     10 H          -2.2067   13.1853   16.8709 H       1  UNL1        0.0621
     11 C          -0.2187   13.9406   16.9468 C.ar    1  UNL1       -0.0391
     12 H          -0.0293   13.6380   17.9650 H       1  UNL1        0.0637
     13 C          -2.9728   13.8546   14.3579 C.3     1  UNL1       -0.0397
     14 H          -2.9887   12.8340   13.9721 H       1  UNL1        0.0278
     15 H          -3.1355   14.5337   13.5240 H       1  UNL1        0.0278
     16 H          -3.7968   13.9574   15.0619 H       1  UNL1        0.0278
@<TRIPOS>BOND
     1     7     6    1
     2    15    13    1
     3    14    13    1
     4    13     8    1
     5    13    16    1
     6     6     4   ar
     7     6     8   ar
     8     5     4    1
     9     4     3   ar
    10     8     9   ar
    11     2     1    1
    12     3     1    1
    13     3    11   ar
    14     9    10    1
    15     9    11   ar
    16    11    12    1
