@<TRIPOS>MOLECULE
3
 21 20 0 0 0
SMALL
GASTEIGER

@<TRIPOS>ATOM
      1 SI          3.6974    0.4817    3.4062 Si      1  UNL1        0.0000
      2 SI          3.7900    2.1476    0.8537 Si      1  UNL1        0.0000
      3 N           3.2532    1.8428    2.4564 N.3     1  UNL1        0.0000
      4 C           5.5574    0.3396    3.8009 C.3     1  UNL1        0.0000
      5 C           3.1635   -1.2115    2.7120 C.3     1  UNL1        0.0000
      6 C           5.6690    2.3968    0.6531 C.3     1  UNL1        0.0000
      7 C           3.2716    0.8469   -0.4404 C.3     1  UNL1        0.0000
      8 H           2.9567    0.6967    4.7186 H       1  UNL1        0.0000
      9 H           6.1119   -0.0065    2.9348 H       1  UNL1        0.0000
     10 H           5.7363   -0.3641    4.6076 H       1  UNL1        0.0000
     11 H           5.9758    1.2954    4.0960 H       1  UNL1        0.0000
     12 H           3.1115    3.4621    0.4874 H       1  UNL1        0.0000
     13 H           3.2508   -1.9895    3.4636 H       1  UNL1        0.0000
     14 H           3.7826   -1.4990    1.8685 H       1  UNL1        0.0000
     15 H           2.1341   -1.1949    2.3716 H       1  UNL1        0.0000
     16 H           5.9084    2.8229   -0.3157 H       1  UNL1        0.0000
     17 H           6.1988    1.4539    0.7375 H       1  UNL1        0.0000
     18 H           6.0647    3.0621    1.4127 H       1  UNL1        0.0000
     19 H           3.8822   -0.0465   -0.3604 H       1  UNL1        0.0000
     20 H           3.3808    1.2296   -1.4501 H       1  UNL1        0.0000
     21 H           2.2372    0.5488   -0.3093 H       1  UNL1        0.0000
@<TRIPOS>BOND
     1    20     7    1
     2     7    19    1
     3     7    21    1
     4     7     2    1
     5    16     6    1
     6    12     2    1
     7     6    17    1
     8     6     2    1
     9     6    18    1
    10     2     3    1
    11    14     5    1
    12    15     5    1
    13     3     1    1
    14     5     1    1
    15     5    13    1
    16     9     4    1
    17     1     4    1
    18     1     8    1
    19     4    11    1
    20     4    10    1
