@<TRIPOS>MOLECULE
1
 11 11 0 0 0
SMALL
GASTEIGER

@<TRIPOS>ATOM
      1 N           7.5183    2.3866    5.1584 N.pl3   1  UNL1       -0.2487
      2 C           6.9565    2.2540    6.3582 C.3     1  UNL1        0.0840
      3 C           7.6911    2.1142    7.5268 C.2     1  UNL1       -0.0600
      4 C           9.0735    2.0809    7.4499 C.2     1  UNL1       -0.0626
      5 C           9.6601    2.2001    6.1963 C.2     1  UNL1       -0.0466
      6 C           8.8475    2.3606    5.0871 C.2     1  UNL1        0.0121
      7 H           5.8732    2.2156    6.3815 H       1  UNL1        0.0584
      8 H           7.1866    2.0196    8.4765 H       1  UNL1        0.0592
      9 H           9.6769    1.9606    8.3374 H       1  UNL1        0.0615
     10 H          10.7328    2.1712    6.0837 H       1  UNL1        0.0630
     11 H           9.2598    2.4783    4.0946 H       1  UNL1        0.0797
@<TRIPOS>BOND
     1    11     6    1
     2     6     1    1
     3     6     5    2
     4     1     2    1
     5    10     5    1
     6     5     4    1
     7     2     7    1
     8     2     3    1
     9     4     3    2
    10     4     9    1
    11     3     8    1
