@<TRIPOS>MOLECULE
1
 9 8 0 0 0
SMALL
GASTEIGER

@<TRIPOS>ATOM
      1 N           2.9043   10.2691    1.6220 N.3     1  UNL1       -0.2469
      2 C           2.3151    9.5639    0.5042 C.3     1  UNL1        0.0021
      3 C           4.3245   10.0061    1.6973 C.3     1  UNL1        0.0021
      4 H           2.3156    8.4696    0.6741 H       1  UNL1        0.0405
      5 H           1.2811    9.8995    0.3641 H       1  UNL1        0.0405
      6 H           2.8746    9.7344   -0.4363 H       1  UNL1        0.0405
      7 H           4.5266    8.9370    1.9024 H       1  UNL1        0.0405
      8 H           4.8441   10.2442    0.7470 H       1  UNL1        0.0405
      9 H           4.7742   10.5985    2.5039 H       1  UNL1        0.0405
@<TRIPOS>BOND
     1     6     2    1
     2     5     2    1
     3     2     4    1
     4     2     1    1
     5     8     3    1
     6     1     3    1
     7     3     7    1
     8     3     9    1
