@<TRIPOS>MOLECULE
1
 9 8 0 0 0
SMALL
GASTEIGER

@<TRIPOS>ATOM
      1 N           2.6385   11.6866    4.3580 N.3     1  UNL1       -0.2469
      2 C           3.0172   10.3928    4.8952 C.3     1  UNL1        0.0021
      3 C           2.7751   12.6792    5.4054 C.3     1  UNL1        0.0021
      4 H           4.0530   10.4072    5.2870 H       1  UNL1        0.0405
      5 H           2.3664   10.1004    5.7440 H       1  UNL1        0.0405
      6 H           2.9511    9.6219    4.1212 H       1  UNL1        0.0405
      7 H           3.8228   12.7592    5.7557 H       1  UNL1        0.0405
      8 H           2.4516   13.6632    5.0573 H       1  UNL1        0.0405
      9 H           2.1713   12.4122    6.2957 H       1  UNL1        0.0405
@<TRIPOS>BOND
     1     6     2    1
     2     1     2    1
     3     1     3    1
     4     2     4    1
     5     2     5    1
     6     8     3    1
     7     3     7    1
     8     3     9    1
