@<TRIPOS>MOLECULE
1
 9 8 0 0 0
SMALL
GASTEIGER

@<TRIPOS>ATOM
      1 N           2.2889    4.1200   11.6635 N.3     1  UNL1       -0.2469
      2 C           2.8674    3.4129   10.5414 C.3     1  UNL1        0.0021
      3 C           0.8688    3.8605   11.7503 C.3     1  UNL1        0.0021
      4 H           2.8666    2.3188   10.7119 H       1  UNL1        0.0405
      5 H           2.3002    3.5836    9.6056 H       1  UNL1        0.0405
      6 H           3.9007    3.7465   10.3923 H       1  UNL1        0.0405
      7 H           0.6654    2.7933   11.9636 H       1  UNL1        0.0405
      8 H           0.4262    4.4591   12.5562 H       1  UNL1        0.0405
      9 H           0.3435    4.0938   10.8021 H       1  UNL1        0.0405
@<TRIPOS>BOND
     1     5     2    1
     2     6     2    1
     3     2     4    1
     4     2     1    1
     5     9     3    1
     6     1     3    1
     7     3     7    1
     8     3     8    1
