@<TRIPOS>MOLECULE
1
 9 8 0 0 0
SMALL
GASTEIGER

@<TRIPOS>ATOM
      1 N           2.5564    5.5513   14.3902 N.3     1  UNL1       -0.2469
      2 C           2.4278    6.5461   15.4364 C.3     1  UNL1        0.0021
      3 C           2.1953    4.2568   14.9375 C.3     1  UNL1        0.0021
      4 H           1.3864    6.6119   15.8079 H       1  UNL1        0.0405
      5 H           3.0539    6.2922   16.3154 H       1  UNL1        0.0405
      6 H           2.7285    7.5332   15.0774 H       1  UNL1        0.0405
      7 H           1.1643    4.2653   15.3417 H       1  UNL1        0.0405
      8 H           2.2571    3.4831   14.1661 H       1  UNL1        0.0405
      9 H           2.8585    3.9729   15.7795 H       1  UNL1        0.0405
@<TRIPOS>BOND
     1     8     3    1
     2     1     3    1
     3     1     2    1
     4     3     7    1
     5     3     9    1
     6     6     2    1
     7     2     4    1
     8     2     5    1
