@<TRIPOS>MOLECULE
2
 42 42 0 0 0
SMALL
GASTEIGER

@<TRIPOS>ATOM
      1 SI          8.5486   14.9793    4.3208 Si      1  UNL1        0.0000
      2 N           8.8420   11.9147    3.1313 N.3     1  UNL1        0.0000
      3 C           9.7503   12.8244    3.1137 C.3     1  UNL1        0.0000
      4 SI          8.6742   14.3337    1.0176 Si      1  UNL1        0.0000
      5 C           9.4771   14.2230    2.7814 C.3     1  UNL1        0.0000
      6 H          10.4241   14.7655    2.7325 H       1  UNL1        0.0000
      7 C           7.1017   13.9037    4.9257 C.3     1  UNL1        0.0000
      8 H           6.3096   13.8152    4.1882 H       1  UNL1        0.0000
      9 H           6.6603   14.3455    5.8148 H       1  UNL1        0.0000
     10 H           7.4207   12.8986    5.1971 H       1  UNL1        0.0000
     11 C           9.8665   15.1050    5.6939 C.3     1  UNL1        0.0000
     12 H          10.1774   14.1209    6.0319 H       1  UNL1        0.0000
     13 H           9.4817   15.6378    6.5580 H       1  UNL1        0.0000
     14 H          10.7560   15.6303    5.3571 H       1  UNL1        0.0000
     15 C           7.9291   16.7168    3.8508 C.3     1  UNL1        0.0000
     16 H           7.1169   16.6788    3.1328 H       1  UNL1        0.0000
     17 H           8.7195   17.3275    3.4280 H       1  UNL1        0.0000
     18 H           7.5591   17.2280    4.7332 H       1  UNL1        0.0000
     19 C           9.6251   13.1604   -0.1425 C.3     1  UNL1        0.0000
     20 H           9.7994   12.1874    0.3133 H       1  UNL1        0.0000
     21 H          10.5937   13.5657   -0.4229 H       1  UNL1        0.0000
     22 H           9.0720   12.9911   -1.0622 H       1  UNL1        0.0000
     23 C           6.8287   13.8544    1.0269 C.3     1  UNL1        0.0000
     24 H           6.6940   12.7774    1.0894 H       1  UNL1        0.0000
     25 H           6.3583   14.1748    0.1020 H       1  UNL1        0.0000
     26 H           6.2793   14.3140    1.8430 H       1  UNL1        0.0000
     27 C           8.8795   16.1297    0.4161 C.3     1  UNL1        0.0000
     28 H           8.1981   16.8097    0.9133 H       1  UNL1        0.0000
     29 H           8.6773   16.1888   -0.6483 H       1  UNL1        0.0000
     30 H           9.8877   16.4982    0.5758 H       1  UNL1        0.0000
     31 C          11.1222   12.4440    3.4938 C.ar    1  UNL1        0.0000
     32 C          12.2050   12.7663    2.6789 C.ar    1  UNL1        0.0000
     33 H          12.0331   13.2615    1.7353 H       1  UNL1        0.0000
     34 C          13.4862   12.4095    3.0534 C.ar    1  UNL1        0.0000
     35 H          14.3174   12.6397    2.4038 H       1  UNL1        0.0000
     36 C          13.7069   11.7636    4.2595 C.ar    1  UNL1        0.0000
     37 H          14.7116   11.4990    4.5547 H       1  UNL1        0.0000
     38 C          12.6382   11.4636    5.0869 C.ar    1  UNL1        0.0000
     39 H          12.8036   10.9798    6.0380 H       1  UNL1        0.0000
     40 C          11.3470   11.7826    4.7012 C.ar    1  UNL1        0.0000
     41 H          10.5178   11.5765    5.3699 H       1  UNL1        0.0000
     42 H           7.9190   12.2796    2.9047 H       1  UNL1        0.0000
@<TRIPOS>BOND
     1    22    19    1
     2    29    27    1
     3    21    19    1
     4    19    20    1
     5    19     4    1
     6    25    23    1
     7    27    30    1
     8    27    28    1
     9    27     4    1
    10     4    23    1
    11     4     5    1
    12    23    24    1
    13    23    26    1
    14    33    32    1
    15    35    34    1
    16    32    34   ar
    17    32    31   ar
    18     6     5    1
    19     5     3    1
    20     5     1    1
    21    42     2    1
    22    34    36   ar
    23     3     2    1
    24     3    31    1
    25    16    15    1
    26    17    15    1
    27    31    40   ar
    28    15     1    1
    29    15    18    1
    30     8     7    1
    31    36    37    1
    32    36    38   ar
    33     1     7    1
    34     1    11    1
    35    40    38   ar
    36    40    41    1
    37     7    10    1
    38     7     9    1
    39    38    39    1
    40    14    11    1
    41    11    12    1
    42    11    13    1
