@<TRIPOS>MOLECULE
1
 15 14 0 0 0
SMALL
GASTEIGER

@<TRIPOS>ATOM
      1 N           2.7559    5.8385   22.0612 N.3     1  UNL1       -0.2508
      2 C           3.9301    6.5967   22.4442 C.3     1  UNL1        0.0249
      3 C           3.9864    7.9312   21.6659 C.3     1  UNL1       -0.0460
      4 C           3.9127    6.9143   23.9565 C.3     1  UNL1       -0.0460
      5 C           5.1817    5.7655   22.1167 C.3     1  UNL1       -0.0460
      6 H           1.9417    6.4057   22.3156 H       1  UNL1        0.1412
      7 H           4.8908    8.4831   21.9121 H       1  UNL1        0.0248
      8 H           3.1250    8.5503   21.9120 H       1  UNL1        0.0248
      9 H           3.9751    7.7369   20.5955 H       1  UNL1        0.0248
     10 H           4.8264    7.4182   24.2687 H       1  UNL1        0.0248
     11 H           3.8018    5.9790   24.5041 H       1  UNL1        0.0248
     12 H           3.0678    7.5603   24.1931 H       1  UNL1        0.0248
     13 H           6.0481    6.1421   22.6575 H       1  UNL1        0.0248
     14 H           4.9799    4.7291   22.3955 H       1  UNL1        0.0248
     15 H           5.3976    5.8021   21.0521 H       1  UNL1        0.0248
@<TRIPOS>BOND
     1     9     3    1
     2    15     5    1
     3     3     8    1
     4     3     7    1
     5     3     2    1
     6     1     6    1
     7     1     2    1
     8     5    14    1
     9     5     2    1
    10     5    13    1
    11     2     4    1
    12     4    12    1
    13     4    10    1
    14     4    11    1
