@<TRIPOS>MOLECULE
1
 16 16 0 0 0
SMALL
GASTEIGER

@<TRIPOS>ATOM
      1 N           3.6632    3.1337   23.8251 N.3     1  UNL1       -0.2403
      2 C           3.7454    3.4675   25.2330 C.3     1  UNL1        0.0140
      3 C           3.8479    2.2087   26.1232 C.3     1  UNL1       -0.0388
      4 C           5.0838    1.4037   25.7308 C.3     1  UNL1       -0.0507
      5 C           5.0481    1.1145   24.2326 C.3     1  UNL1       -0.0388
      6 C           4.8844    2.4409   23.4577 C.3     1  UNL1        0.0140
      7 H           4.6555    4.0737   25.4451 H       1  UNL1        0.0441
      8 H           2.8639    4.0528   25.5245 H       1  UNL1        0.0441
      9 H           3.9040    2.5007   27.1746 H       1  UNL1        0.0278
     10 H           2.9552    1.5928   25.9865 H       1  UNL1        0.0278
     11 H           5.1321    0.4719   26.3016 H       1  UNL1        0.0266
     12 H           5.9803    1.9848   25.9626 H       1  UNL1        0.0266
     13 H           5.9664    0.6120   23.9205 H       1  UNL1        0.0278
     14 H           4.2062    0.4521   24.0120 H       1  UNL1        0.0278
     15 H           5.7806    3.0533   23.7040 H       1  UNL1        0.0441
     16 H           4.8902    2.2488   22.3765 H       1  UNL1        0.0441
@<TRIPOS>BOND
     1    16     6    1
     2     6    15    1
     3     6     1    1
     4     6     5    1
     5     1     2    1
     6    13     5    1
     7    14     5    1
     8     5     4    1
     9     2     7    1
    10     2     8    1
    11     2     3    1
    12     4    12    1
    13     4     3    1
    14     4    11    1
    15    10     3    1
    16     3     9    1
