@<TRIPOS>MOLECULE
1
 9 9 0 0 0
SMALL
GASTEIGER

@<TRIPOS>ATOM
      1 N          -6.7587    2.6240    4.5902 N.ar    1  UNL1       -0.2633
      2 C          -6.4340    3.9412    4.3816 C.ar    1  UNL1        0.0276
      3 H          -6.1715    4.5864    5.2113 H       1  UNL1        0.0829
      4 C          -6.5302    4.2622    3.0508 C.ar    1  UNL1       -0.0422
      5 H          -6.3411    5.2213    2.6053 H       1  UNL1        0.0633
      6 C          -6.9351    3.0896    2.3870 C.ar    1  UNL1       -0.0422
      7 H          -7.1147    2.9769    1.3345 H       1  UNL1        0.0633
      8 C          -7.0615    2.1214    3.3510 C.ar    1  UNL1        0.0276
      9 H          -7.3717    1.0920    3.2332 H       1  UNL1        0.0829
@<TRIPOS>BOND
     1     7     6    1
     2     6     4   ar
     3     6     8   ar
     4     5     4    1
     5     4     2   ar
     6     9     8    1
     7     8     1   ar
     8     2     1   ar
     9     2     3    1
