@<TRIPOS>MOLECULE
1
 11 11 0 0 0
SMALL
GASTEIGER

@<TRIPOS>ATOM
      1 N          -2.6454    0.5777    2.6125 N.pl3   1  UNL1       -0.2487
      2 C          -2.1643    1.8073    2.3502 C.3     1  UNL1        0.0840
      3 C          -2.9193    2.8020    1.7574 C.2     1  UNL1       -0.0600
      4 C          -4.2350    2.5365    1.3981 C.2     1  UNL1       -0.0626
      5 C          -4.7257    1.2557    1.6408 C.2     1  UNL1       -0.0466
      6 C          -3.9091    0.3178    2.2402 C.2     1  UNL1        0.0121
      7 H          -1.1300    1.9779    2.6375 H       1  UNL1        0.0584
      8 H          -2.4837    3.7733    1.5779 H       1  UNL1        0.0592
      9 H          -4.8522    3.2931    0.9395 H       1  UNL1        0.0615
     10 H          -5.7366    0.9942    1.3678 H       1  UNL1        0.0630
     11 H          -4.2555   -0.6892    2.4474 H       1  UNL1        0.0797
@<TRIPOS>BOND
     1     9     4    1
     2    10     5    1
     3     4     5    1
     4     4     3    2
     5     8     3    1
     6     5     6    2
     7     3     2    1
     8     6    11    1
     9     6     1    1
    10     2     1    1
    11     2     7    1
