@<TRIPOS>MOLECULE
1
 11 11 0 0 0
SMALL
GASTEIGER

@<TRIPOS>ATOM
      1 N           5.6051    6.7133   15.7679 N.pl3   1  UNL1       -0.2487
      2 C           5.3069    7.0490   17.0345 C.3     1  UNL1        0.0840
      3 C           5.5237    8.3090   17.5567 C.2     1  UNL1       -0.0600
      4 C           6.1009    9.2898   16.7577 C.2     1  UNL1       -0.0626
      5 C           6.4558    8.9338   15.4615 C.2     1  UNL1       -0.0466
      6 C           6.1967    7.6525   15.0147 C.2     1  UNL1        0.0121
      7 H           4.8964    6.2584   17.6515 H       1  UNL1        0.0584
      8 H           5.2540    8.5215   18.5803 H       1  UNL1        0.0592
      9 H           6.2838   10.2835   17.1359 H       1  UNL1        0.0615
     10 H           6.9345    9.6456   14.8065 H       1  UNL1        0.0630
     11 H           6.4727    7.3486   14.0136 H       1  UNL1        0.0797
@<TRIPOS>BOND
     1    11     6    1
     2    10     5    1
     3     6     5    2
     4     6     1    1
     5     5     4    1
     6     1     2    1
     7     4     9    1
     8     4     3    2
     9     2     3    1
    10     2     7    1
    11     3     8    1
