@<TRIPOS>MOLECULE
1
 11 11 0 0 0
SMALL
GASTEIGER

@<TRIPOS>ATOM
      1 N           9.7462    2.3452    8.5130 N.pl3   1  UNL1       -0.2487
      2 C           9.6284    1.3553    7.6289 C.3     1  UNL1        0.0840
      3 C          10.4198    1.2464    6.5001 C.2     1  UNL1       -0.0600
      4 C          11.3834    2.2174    6.2586 C.2     1  UNL1       -0.0626
      5 C          11.5117    3.2483    7.1780 C.2     1  UNL1       -0.0466
      6 C          10.6794    3.2713    8.2844 C.2     1  UNL1        0.0121
      7 H           8.8545    0.6198    7.8204 H       1  UNL1        0.0584
      8 H          10.2837    0.4218    5.8168 H       1  UNL1        0.0592
      9 H          12.0107    2.1702    5.3814 H       1  UNL1        0.0615
     10 H          12.2457    4.0265    7.0390 H       1  UNL1        0.0630
     11 H          10.7553    4.0667    9.0171 H       1  UNL1        0.0797
@<TRIPOS>BOND
     1     9     4    1
     2     8     3    1
     3     4     3    2
     4     4     5    1
     5     3     2    1
     6    10     5    1
     7     5     6    2
     8     2     7    1
     9     2     1    1
    10     6     1    1
    11     6    11    1
