@<TRIPOS>MOLECULE
1
 27 26 0 0 0
SMALL
GASTEIGER

@<TRIPOS>ATOM
      1 N          -0.6096    3.8039    3.0644 N.3     1  UNL1        0.0000
      2 SI          0.3953    4.5879    4.2295 Si      1  UNL1        0.0000
      3 C           1.0101    3.1842    5.3709 C.3     1  UNL1        0.0000
      4 H           0.6411    2.2240    5.0120 H       1  UNL1        0.0000
      5 H           0.6829    3.3067    6.3972 H       1  UNL1        0.0000
      6 H           2.0925    3.1409    5.3740 H       1  UNL1        0.0000
      7 C          -0.5172    5.9191    5.2577 C.3     1  UNL1        0.0000
      8 H          -0.7098    6.7986    4.6526 H       1  UNL1        0.0000
      9 H           0.0783    6.2325    6.1096 H       1  UNL1        0.0000
     10 H          -1.4721    5.5651    5.6319 H       1  UNL1        0.0000
     11 C           1.9131    5.4328    3.4340 C.3     1  UNL1        0.0000
     12 H           1.6179    6.2683    2.8090 H       1  UNL1        0.0000
     13 H           2.4659    4.7338    2.8155 H       1  UNL1        0.0000
     14 H           2.5894    5.8128    4.1936 H       1  UNL1        0.0000
     15 SI         -1.6144    4.5881    1.8994 Si      1  UNL1        0.0000
     16 C          -2.2291    3.1845    0.7578 C.3     1  UNL1        0.0000
     17 H          -1.8612    2.2242    1.1178 H       1  UNL1        0.0000
     18 H          -1.9004    3.3061   -0.2681 H       1  UNL1        0.0000
     19 H          -3.3114    3.1421    0.7534 H       1  UNL1        0.0000
     20 C          -0.7018    5.9199    0.8720 C.3     1  UNL1        0.0000
     21 H          -0.5094    6.7991    1.4777 H       1  UNL1        0.0000
     22 H          -1.2971    6.2337    0.0202 H       1  UNL1        0.0000
     23 H           0.2533    5.5663    0.4979 H       1  UNL1        0.0000
     24 C          -3.1323    5.4321    2.6954 C.3     1  UNL1        0.0000
     25 H          -2.8374    6.2671    3.3211 H       1  UNL1        0.0000
     26 H          -3.6849    4.7323    3.3133 H       1  UNL1        0.0000
     27 H          -3.8088    5.8125    1.9361 H       1  UNL1        0.0000
@<TRIPOS>BOND
     1    18    16    1
     2    22    20    1
     3    23    20    1
     4    19    16    1
     5    16    17    1
     6    16    15    1
     7    20    21    1
     8    20    15    1
     9    15    24    1
    10    15     1    1
    11    27    24    1
    12    24    26    1
    13    24    25    1
    14    12    11    1
    15    13    11    1
    16     1     2    1
    17    11    14    1
    18    11     2    1
    19     2     7    1
    20     2     3    1
    21     8     7    1
    22     4     3    1
    23     7    10    1
    24     7     9    1
    25     3     6    1
    26     3     5    1
