@<TRIPOS>MOLECULE
1
 27 26 0 0 0
SMALL
GASTEIGER

@<TRIPOS>ATOM
      1 N           0.7734    2.6731    2.7382 N.3     1  UNL1        0.0000
      2 SI          1.3892    4.0230    3.6484 Si      1  UNL1        0.0000
      3 C           0.5601    5.5372    2.8207 C.3     1  UNL1        0.0000
      4 H           1.2726    6.1184    2.2455 H       1  UNL1        0.0000
      5 H           0.1324    6.1945    3.5677 H       1  UNL1        0.0000
      6 H          -0.2514    5.2405    2.1569 H       1  UNL1        0.0000
      7 C           0.9513    3.9446    5.5027 C.3     1  UNL1        0.0000
      8 H           1.3885    3.0708    5.9750 H       1  UNL1        0.0000
      9 H          -0.1193    3.9146    5.6702 H       1  UNL1        0.0000
     10 H           1.3371    4.8199    6.0158 H       1  UNL1        0.0000
     11 C           3.2864    4.1704    3.4929 C.3     1  UNL1        0.0000
     12 H           3.6494    3.8360    2.5284 H       1  UNL1        0.0000
     13 H           3.7836    3.5733    4.2493 H       1  UNL1        0.0000
     14 H           3.6051    5.1987    3.6305 H       1  UNL1        0.0000
     15 SI          1.1993    0.9877    2.8545 Si      1  UNL1        0.0000
     16 C           3.0789    0.6909    2.7598 C.3     1  UNL1        0.0000
     17 H           3.5124    1.1560    1.8813 H       1  UNL1        0.0000
     18 H           3.2940   -0.3718    2.7110 H       1  UNL1        0.0000
     19 H           3.5856    1.0906    3.6313 H       1  UNL1        0.0000
     20 C           0.5237    0.2464    4.4861 C.3     1  UNL1        0.0000
     21 H           0.2426    1.0185    5.1928 H       1  UNL1        0.0000
     22 H           1.2761   -0.3725    4.9628 H       1  UNL1        0.0000
     23 H          -0.3461   -0.3792    4.3138 H       1  UNL1        0.0000
     24 C           0.3267    0.1742    1.3584 C.3     1  UNL1        0.0000
     25 H           1.0533   -0.1323    0.6162 H       1  UNL1        0.0000
     26 H          -0.3612    0.8586    0.8610 H       1  UNL1        0.0000
     27 H          -0.2324   -0.7076    1.6499 H       1  UNL1        0.0000
@<TRIPOS>BOND
     1    25    24    1
     2    26    24    1
     3    24    27    1
     4    24    15    1
     5    17    16    1
     6     6     3    1
     7     4     3    1
     8    12    11    1
     9    18    16    1
    10     1    15    1
    11     1     2    1
    12    16    15    1
    13    16    19    1
    14     3     5    1
    15     3     2    1
    16    15    20    1
    17    11    14    1
    18    11     2    1
    19    11    13    1
    20     2     7    1
    21    23    20    1
    22    20    22    1
    23    20    21    1
    24     7     9    1
    25     7     8    1
    26     7    10    1
