@<TRIPOS>MOLECULE
1
 27 26 0 0 0
SMALL
GASTEIGER

@<TRIPOS>ATOM
      1 N           7.2622    5.1218    4.0569 N.3     1  UNL1        0.0000
      2 SI          6.3914    4.5768    5.4527 Si      1  UNL1        0.0000
      3 SI          8.9500    5.4889    4.0092 Si      1  UNL1        0.0000
      4 C           6.6604    5.5646    7.0695 C.3     1  UNL1        0.0000
      5 H           6.7056    6.6344    6.9047 H       1  UNL1        0.0000
      6 H           7.5861    5.2667    7.5502 H       1  UNL1        0.0000
      7 H           5.8547    5.3723    7.7714 H       1  UNL1        0.0000
      8 C           6.8985    2.7818    5.8731 C.3     1  UNL1        0.0000
      9 H           7.9167    2.7666    6.2478 H       1  UNL1        0.0000
     10 H           6.8648    2.1382    5.0011 H       1  UNL1        0.0000
     11 H           6.2645    2.3495    6.6408 H       1  UNL1        0.0000
     12 C           4.5629    4.7580    4.9296 C.3     1  UNL1        0.0000
     13 H           4.2393    5.7864    5.0295 H       1  UNL1        0.0000
     14 H           3.8958    4.1582    5.5373 H       1  UNL1        0.0000
     15 H           4.4341    4.4653    3.8868 H       1  UNL1        0.0000
     16 C          10.0217    3.9192    4.2429 C.3     1  UNL1        0.0000
     17 H           9.5304    3.0410    3.8362 H       1  UNL1        0.0000
     18 H          10.1927    3.7348    5.2988 H       1  UNL1        0.0000
     19 H          10.9948    4.0169    3.7712 H       1  UNL1        0.0000
     20 C           9.5283    6.7471    5.3264 C.3     1  UNL1        0.0000
     21 H           8.9511    7.6650    5.2903 H       1  UNL1        0.0000
     22 H          10.5704    7.0089    5.1704 H       1  UNL1        0.0000
     23 H           9.4386    6.3406    6.3273 H       1  UNL1        0.0000
     24 C           9.1761    6.2972    2.2949 C.3     1  UNL1        0.0000
     25 H           9.0691    7.3748    2.3545 H       1  UNL1        0.0000
     26 H           8.4078    5.9357    1.6152 H       1  UNL1        0.0000
     27 H          10.1462    6.0859    1.8603 H       1  UNL1        0.0000
@<TRIPOS>BOND
     1    26    24    1
     2    27    24    1
     3    24    25    1
     4    24     3    1
     5    19    16    1
     6    17    16    1
     7    15    12    1
     8     3     1    1
     9     3    16    1
    10     3    20    1
    11     1     2    1
    12    16    18    1
    13    12    13    1
    14    12     2    1
    15    12    14    1
    16    10     8    1
    17    22    20    1
    18    21    20    1
    19    20    23    1
    20     2     8    1
    21     2     4    1
    22     8     9    1
    23     8    11    1
    24     5     4    1
    25     4     6    1
    26     4     7    1
