@<TRIPOS>MOLECULE
3
 27 26 0 0 0
SMALL
GASTEIGER

@<TRIPOS>ATOM
      1 SI          6.0519    2.2869    3.6328 Si      1  UNL1        0.0000
      2 SI          6.4896    5.3300    3.8055 Si      1  UNL1        0.0000
      3 N           6.8972    3.7451    3.2521 N.3     1  UNL1        0.0000
      4 C           7.6368    6.5008    2.8228 C.3     1  UNL1        0.0000
      5 H           8.2480    7.0891    3.4964 H       1  UNL1        0.0000
      6 H           7.0881    7.1897    2.1905 H       1  UNL1        0.0000
      7 H           8.3065    5.9214    2.1881 H       1  UNL1        0.0000
      8 C           6.8404    5.5646    5.6683 C.3     1  UNL1        0.0000
      9 H           6.2054    4.9282    6.2744 H       1  UNL1        0.0000
     10 H           6.6617    6.5917    5.9708 H       1  UNL1        0.0000
     11 H           7.8724    5.3253    5.9029 H       1  UNL1        0.0000
     12 C           4.6584    5.7962    3.5050 C.3     1  UNL1        0.0000
     13 H           4.3337    5.5550    2.4981 H       1  UNL1        0.0000
     14 H           4.4938    6.8577    3.6621 H       1  UNL1        0.0000
     15 H           4.0132    5.2604    4.1930 H       1  UNL1        0.0000
     16 C           7.1659    0.8870    2.9607 C.3     1  UNL1        0.0000
     17 H           7.5304    0.2317    3.7437 H       1  UNL1        0.0000
     18 H           8.0290    1.3092    2.4463 H       1  UNL1        0.0000
     19 H           6.6228    0.2774    2.2489 H       1  UNL1        0.0000
     20 C           5.7500    2.0429    5.5063 C.3     1  UNL1        0.0000
     21 H           6.6422    2.2305    6.0945 H       1  UNL1        0.0000
     22 H           5.4177    1.0317    5.7198 H       1  UNL1        0.0000
     23 H           4.9790    2.7207    5.8571 H       1  UNL1        0.0000
     24 C           4.3535    2.1813    2.7657 C.3     1  UNL1        0.0000
     25 H           3.6810    2.9552    3.1183 H       1  UNL1        0.0000
     26 H           3.8802    1.2228    2.9548 H       1  UNL1        0.0000
     27 H           4.4561    2.2940    1.6916 H       1  UNL1        0.0000
@<TRIPOS>BOND
     1    27    24    1
     2     7     4    1
     3     6     4    1
     4    19    16    1
     5    18    16    1
     6    13    12    1
     7    24    26    1
     8    24    25    1
     9    24     1    1
    10     4     5    1
    11     4     2    1
    12    16     1    1
    13    16    17    1
    14     3     1    1
    15     3     2    1
    16    12    14    1
    17    12     2    1
    18    12    15    1
    19     1    20    1
    20     2     8    1
    21    20    22    1
    22    20    23    1
    23    20    21    1
    24     8    11    1
    25     8    10    1
    26     8     9    1
