@<TRIPOS>MOLECULE
1
 11 11 0 0 0
SMALL
GASTEIGER

@<TRIPOS>ATOM
      1 N           3.1603    7.1071    1.5765 N.pl3   1  UNL1       -0.2487
      2 C           2.4824    7.4223    0.4602 C.3     1  UNL1        0.0840
      3 H           1.8184    8.2776    0.5274 H       1  UNL1        0.0584
      4 C           2.5976    6.7111   -0.7197 C.2     1  UNL1       -0.0600
      5 H           2.0307    7.0117   -1.5858 H       1  UNL1        0.0592
      6 C           3.4494    5.6158   -0.7695 C.2     1  UNL1       -0.0626
      7 H           3.5597    5.0391   -1.6744 H       1  UNL1        0.0615
      8 C           4.1581    5.2841    0.3791 C.2     1  UNL1       -0.0466
      9 H           4.8338    4.4433    0.3866 H       1  UNL1        0.0630
     10 C           3.9905    6.0494    1.5173 C.2     1  UNL1        0.0121
     11 H           4.5226    5.8205    2.4384 H       1  UNL1        0.0797
@<TRIPOS>BOND
     1     7     6    1
     2     5     4    1
     3     6     4    2
     4     6     8    1
     5     4     2    1
     6     8     9    1
     7     8    10    2
     8     2     3    1
     9     2     1    1
    10    10     1    1
    11    10    11    1
