@<TRIPOS>MOLECULE
3
 27 26 0 0 0
SMALL
GASTEIGER

@<TRIPOS>ATOM
      1 SI          4.2804    2.9139   11.8131 Si      1  UNL1        0.0000
      2 SI          3.0813    3.3605   14.5423 Si      1  UNL1        0.0000
      3 N           2.9949    3.4396   12.8273 N.3     1  UNL1        0.0000
      4 C           6.0269    3.4156   12.3891 C.3     1  UNL1        0.0000
      5 H           6.1148    4.4876   12.5285 H       1  UNL1        0.0000
      6 H           6.7808    3.1115   11.6706 H       1  UNL1        0.0000
      7 H           6.2599    2.9394   13.3346 H       1  UNL1        0.0000
      8 C           3.9527    3.7240   10.1064 C.3     1  UNL1        0.0000
      9 H           2.9757    3.4172    9.7128 H       1  UNL1        0.0000
     10 H           4.6953    3.4215    9.3752 H       1  UNL1        0.0000
     11 H           3.9772    4.8130   10.1662 H       1  UNL1        0.0000
     12 C           4.3042    1.0209   11.5244 C.3     1  UNL1        0.0000
     13 H           4.3283    0.4792   12.4639 H       1  UNL1        0.0000
     14 H           5.1825    0.7290   10.9581 H       1  UNL1        0.0000
     15 H           3.4327    0.6887   10.9670 H       1  UNL1        0.0000
     16 C           3.6761    1.6687   15.2058 C.3     1  UNL1        0.0000
     17 H           3.1122    0.8366   14.7965 H       1  UNL1        0.0000
     18 H           3.5994    1.6212   16.2871 H       1  UNL1        0.0000
     19 H           4.7168    1.5158   14.9428 H       1  UNL1        0.0000
     20 C           4.2025    4.6860   15.3398 C.3     1  UNL1        0.0000
     21 H           5.1883    4.6892   14.8908 H       1  UNL1        0.0000
     22 H           4.3250    4.4980   16.4018 H       1  UNL1        0.0000
     23 H           3.7817    5.6804   15.2274 H       1  UNL1        0.0000
     24 C           1.3199    3.6903   15.2241 C.3     1  UNL1        0.0000
     25 H           0.7672    4.3758   14.5692 H       1  UNL1        0.0000
     26 H           1.3733    4.1610   16.2005 H       1  UNL1        0.0000
     27 H           0.7385    2.7802   15.3362 H       1  UNL1        0.0000
@<TRIPOS>BOND
     1    10     8    1
     2     9     8    1
     3     8    11    1
     4     8     1    1
     5    14    12    1
     6    15    12    1
     7    12     1    1
     8    12    13    1
     9     6     4    1
    10     1     4    1
    11     1     3    1
    12     4     5    1
    13     4     7    1
    14     3     2    1
    15     2    16    1
    16     2    24    1
    17     2    20    1
    18    25    24    1
    19    17    16    1
    20    21    20    1
    21    19    16    1
    22    16    18    1
    23    24    27    1
    24    24    26    1
    25    23    20    1
    26    20    22    1
