@<TRIPOS>MOLECULE
1
 11 11 0 0 0
SMALL
GASTEIGER

@<TRIPOS>ATOM
      1 N          10.5160    2.9133    2.0531 N.pl3   1  UNL1       -0.2487
      2 C          11.5898    3.1585    2.8440 C.3     1  UNL1        0.0840
      3 C          12.7361    3.7820    2.4093 C.2     1  UNL1       -0.0600
      4 C          12.8377    4.2184    1.0920 C.2     1  UNL1       -0.0626
      5 C          11.7390    3.9816    0.2720 C.2     1  UNL1       -0.0466
      6 C          10.6299    3.3422    0.7762 C.2     1  UNL1        0.0121
      7 H          11.5070    2.8224    3.8690 H       1  UNL1        0.0584
      8 H          13.5503    3.9354    3.1022 H       1  UNL1        0.0592
      9 H          13.7218    4.7139    0.7259 H       1  UNL1        0.0615
     10 H          11.7477    4.2903   -0.7628 H       1  UNL1        0.0630
     11 H           9.7838    3.1385    0.1373 H       1  UNL1        0.0797
@<TRIPOS>BOND
     1    10     5    1
     2    11     6    1
     3     5     6    2
     4     5     4    1
     5     9     4    1
     6     6     1    1
     7     4     3    2
     8     1     2    1
     9     3     2    1
    10     3     8    1
    11     2     7    1
