@<TRIPOS>MOLECULE
1
 57 57 0 0 0
SMALL
GASTEIGER

@<TRIPOS>ATOM
      1 N          23.7917    9.3279   10.2349 N.pl3   1  UNL1        0.0000
      2 N          23.6038    7.8483   12.4503 N.3     1  UNL1        0.0000
      3 N          20.4659   10.0064    6.0243 N.3     1  UNL1        0.0000
      4 SI         22.8711    7.9967   10.8486 Si      1  UNL1        0.0000
      5 C          20.3042    8.7618    6.7679 C.3     1  UNL1        0.0000
      6 H          19.4955    8.1437    6.3358 H       1  UNL1        0.0000
      7 H          20.0155    9.0311    7.7889 H       1  UNL1        0.0000
      8 C          21.5797    7.9635    6.8118 C.ar    1  UNL1        0.0000
      9 C          21.6625    6.7473    6.1527 C.ar    1  UNL1        0.0000
     10 H          20.8011    6.3780    5.6118 H       1  UNL1        0.0000
     11 C          22.8294    6.0013    6.1649 C.ar    1  UNL1        0.0000
     12 H          22.8757    5.0602    5.6368 H       1  UNL1        0.0000
     13 C          23.9347    6.4772    6.8503 C.ar    1  UNL1        0.0000
     14 H          24.8550    5.9094    6.8504 H       1  UNL1        0.0000
     15 C          23.8577    7.6773    7.5273 C.ar    1  UNL1        0.0000
     16 H          24.7076    8.0656    8.0661 H       1  UNL1        0.0000
     17 C          22.6895    8.4378    7.5297 C.ar    1  UNL1        0.0000
     18 C          22.6769    9.7582    8.1291 C.2     1  UNL1        0.0000
     19 H          22.1650   10.4826    7.5187 H       1  UNL1        0.0000
     20 C          23.2787   10.1636    9.2682 C.2     1  UNL1        0.0000
     21 C          23.4041   11.6648    9.5631 C.3     1  UNL1        0.0000
     22 C          24.9007   11.9953    9.5830 C.3     1  UNL1        0.0000
     23 H          25.3188   11.8739    8.5867 H       1  UNL1        0.0000
     24 H          25.4212   11.3142   10.2618 H       1  UNL1        0.0000
     25 H          25.0665   13.0193    9.9085 H       1  UNL1        0.0000
     26 C          22.7734   11.9553   10.9275 C.3     1  UNL1        0.0000
     27 H          22.9759   12.9776   11.2385 H       1  UNL1        0.0000
     28 H          23.1746   11.2711   11.6725 H       1  UNL1        0.0000
     29 H          21.6960   11.8155   10.8744 H       1  UNL1        0.0000
     30 C          22.7322   12.5712    8.5281 C.3     1  UNL1        0.0000
     31 H          23.1630   12.4314    7.5406 H       1  UNL1        0.0000
     32 H          22.8815   13.6101    8.8182 H       1  UNL1        0.0000
     33 H          21.6626   12.3868    8.4744 H       1  UNL1        0.0000
     34 C          20.7849    9.7591    4.6349 C.3     1  UNL1        0.0000
     35 H          21.6917    9.1596    4.5800 H       1  UNL1        0.0000
     36 H          20.9628   10.7109    4.1358 H       1  UNL1        0.0000
     37 H          19.9780    9.2291    4.1029 H       1  UNL1        0.0000
     38 C          19.3010   10.8528    6.1555 C.3     1  UNL1        0.0000
     39 H          18.3880   10.3925    5.7436 H       1  UNL1        0.0000
     40 H          19.4819   11.7900    5.6303 H       1  UNL1        0.0000
     41 H          19.1322   11.0718    7.2093 H       1  UNL1        0.0000
     42 C          21.0171    8.4905   10.9742 C.3     1  UNL1        0.0000
     43 H          20.8701    9.3929   11.5581 H       1  UNL1        0.0000
     44 H          20.4233    7.7021   11.4264 H       1  UNL1        0.0000
     45 H          20.6152    8.6747    9.9844 H       1  UNL1        0.0000
     46 C          22.8313    6.2547   10.0699 C.3     1  UNL1        0.0000
     47 H          22.2318    6.2497    9.1675 H       1  UNL1        0.0000
     48 H          22.3876    5.5438   10.7600 H       1  UNL1        0.0000
     49 H          23.8182    5.8951    9.8084 H       1  UNL1        0.0000
     50 C          23.8431    6.5254   12.9712 C.3     1  UNL1        0.0000
     51 H          24.5143    6.5786   13.8284 H       1  UNL1        0.0000
     52 H          24.3083    5.9155   12.2053 H       1  UNL1        0.0000
     53 H          22.9156    6.0343   13.2992 H       1  UNL1        0.0000
     54 C          23.0988    8.7193   13.4904 C.3     1  UNL1        0.0000
     55 H          22.1729    8.3286   13.9344 H       1  UNL1        0.0000
     56 H          22.8925    9.7025   13.0756 H       1  UNL1        0.0000
     57 H          23.8371    8.8257   14.2884 H       1  UNL1        0.0000
@<TRIPOS>BOND
     1    37    34    1
     2    36    34    1
     3    35    34    1
     4    34     3    1
     5    10     9    1
     6    40    38    1
     7    12    11    1
     8    39    38    1
     9     3    38    1
    10     3     5    1
    11     9    11   ar
    12     9     8   ar
    13    38    41    1
    14    11    13   ar
    15     6     5    1
    16     5     8    1
    17     5     7    1
    18     8    17   ar
    19    13    14    1
    20    13    15   ar
    21    19    18    1
    22    15    17   ar
    23    15    16    1
    24    17    18    1
    25    31    30    1
    26    18    20    2
    27    33    30    1
    28    30    32    1
    29    30    21    1
    30    23    22    1
    31    47    46    1
    32    20    21    1
    33    20     1    1
    34    21    22    1
    35    21    26    1
    36    22    25    1
    37    22    24    1
    38    49    46    1
    39    45    42    1
    40    46    48    1
    41    46     4    1
    42     1     4    1
    43     4    42    1
    44     4     2    1
    45    29    26    1
    46    26    27    1
    47    26    28    1
    48    42    44    1
    49    42    43    1
    50    52    50    1
    51     2    50    1
    52     2    54    1
    53    50    53    1
    54    50    51    1
    55    56    54    1
    56    54    55    1
    57    54    57    1
