@<TRIPOS>MOLECULE
1
 57 57 0 0 0
SMALL
GASTEIGER

@<TRIPOS>ATOM
      1 N          26.7274    9.3279   12.6114 N.pl3   1  UNL1        0.0000
      2 N          26.9152    7.8483   10.3961 N.3     1  UNL1        0.0000
      3 N          30.0532   10.0064   16.8221 N.3     1  UNL1        0.0000
      4 SI         27.6479    7.9967   11.9977 Si      1  UNL1        0.0000
      5 C          30.2148    8.7618   16.0785 C.3     1  UNL1        0.0000
      6 H          31.0235    8.1437   16.5105 H       1  UNL1        0.0000
      7 H          30.5035    9.0311   15.0575 H       1  UNL1        0.0000
      8 C          28.9393    7.9635   16.0345 C.ar    1  UNL1        0.0000
      9 C          28.8565    6.7473   16.6936 C.ar    1  UNL1        0.0000
     10 H          29.7178    6.3780   17.2345 H       1  UNL1        0.0000
     11 C          27.6896    6.0013   16.6815 C.ar    1  UNL1        0.0000
     12 H          27.6432    5.0602   17.2095 H       1  UNL1        0.0000
     13 C          26.5843    6.4772   15.9960 C.ar    1  UNL1        0.0000
     14 H          25.6640    5.9095   15.9960 H       1  UNL1        0.0000
     15 C          26.6613    7.6773   15.3190 C.ar    1  UNL1        0.0000
     16 H          25.8114    8.0656   14.7803 H       1  UNL1        0.0000
     17 C          27.8296    8.4378   15.3166 C.ar    1  UNL1        0.0000
     18 C          27.8422    9.7582   14.7172 C.2     1  UNL1        0.0000
     19 H          28.3541   10.4826   15.3277 H       1  UNL1        0.0000
     20 C          27.2404   10.1637   13.5781 C.2     1  UNL1        0.0000
     21 C          27.1149   11.6649   13.2832 C.3     1  UNL1        0.0000
     22 C          25.6183   11.9953   13.2633 C.3     1  UNL1        0.0000
     23 H          25.2002   11.8739   14.2596 H       1  UNL1        0.0000
     24 H          25.0978   11.3142   12.5845 H       1  UNL1        0.0000
     25 H          25.4525   13.0193   12.9378 H       1  UNL1        0.0000
     26 C          27.7457   11.9552   11.9188 C.3     1  UNL1        0.0000
     27 H          27.5431   12.9776   11.6078 H       1  UNL1        0.0000
     28 H          27.3445   11.2711   11.1738 H       1  UNL1        0.0000
     29 H          28.8230   11.8155   11.9719 H       1  UNL1        0.0000
     30 C          27.7868   12.5712   14.3182 C.3     1  UNL1        0.0000
     31 H          27.3560   12.4314   15.3057 H       1  UNL1        0.0000
     32 H          27.6376   13.6101   14.0281 H       1  UNL1        0.0000
     33 H          28.8564   12.3868   14.3719 H       1  UNL1        0.0000
     34 C          29.7341    9.7591   18.2114 C.3     1  UNL1        0.0000
     35 H          28.8273    9.1596   18.2664 H       1  UNL1        0.0000
     36 H          29.5562   10.7109   18.7105 H       1  UNL1        0.0000
     37 H          30.5410    9.2291   18.7434 H       1  UNL1        0.0000
     38 C          31.2181   10.8528   16.6909 C.3     1  UNL1        0.0000
     39 H          32.1311   10.3925   17.1027 H       1  UNL1        0.0000
     40 H          31.0372   11.7900   17.2160 H       1  UNL1        0.0000
     41 H          31.3869   11.0718   15.6371 H       1  UNL1        0.0000
     42 C          29.5019    8.4905   11.8721 C.3     1  UNL1        0.0000
     43 H          29.6489    9.3929   11.2882 H       1  UNL1        0.0000
     44 H          30.0957    7.7021   11.4199 H       1  UNL1        0.0000
     45 H          29.9038    8.6747   12.8620 H       1  UNL1        0.0000
     46 C          27.6877    6.2547   12.7764 C.3     1  UNL1        0.0000
     47 H          28.2872    6.2497   13.6788 H       1  UNL1        0.0000
     48 H          28.1315    5.5438   12.0863 H       1  UNL1        0.0000
     49 H          26.7009    5.8951   13.0380 H       1  UNL1        0.0000
     50 C          26.6759    6.5254    9.8752 C.3     1  UNL1        0.0000
     51 H          26.0047    6.5786    9.0179 H       1  UNL1        0.0000
     52 H          26.2107    5.9155   10.6410 H       1  UNL1        0.0000
     53 H          27.6034    6.0343    9.5471 H       1  UNL1        0.0000
     54 C          27.4202    8.7193    9.3559 C.3     1  UNL1        0.0000
     55 H          28.3461    8.3286    8.9119 H       1  UNL1        0.0000
     56 H          27.6265    9.7025    9.7707 H       1  UNL1        0.0000
     57 H          26.6819    8.8257    8.5579 H       1  UNL1        0.0000
@<TRIPOS>BOND
     1    57    54    1
     2    55    54    1
     3    51    50    1
     4    54    56    1
     5    54     2    1
     6    53    50    1
     7    50     2    1
     8    50    52    1
     9     2     4    1
    10    28    26    1
    11    43    42    1
    12    44    42    1
    13    27    26    1
    14    42     4    1
    15    42    45    1
    16    26    29    1
    17    26    21    1
    18     4     1    1
    19     4    46    1
    20    48    46    1
    21    24    22    1
    22     1    20    1
    23    46    49    1
    24    46    47    1
    25    25    22    1
    26    22    21    1
    27    22    23    1
    28    21    20    1
    29    21    30    1
    30    20    18    2
    31    32    30    1
    32    30    33    1
    33    30    31    1
    34    18    17    1
    35    18    19    1
    36    16    15    1
    37     7     5    1
    38    17    15   ar
    39    17     8   ar
    40    15    13   ar
    41    41    38    1
    42    13    14    1
    43    13    11   ar
    44     8     5    1
    45     8     9   ar
    46     5     6    1
    47     5     3    1
    48    11     9   ar
    49    11    12    1
    50    38     3    1
    51    38    39    1
    52    38    40    1
    53     9    10    1
    54     3    34    1
    55    34    35    1
    56    34    36    1
    57    34    37    1
