@<TRIPOS>MOLECULE
3
 27 26 0 0 0
SMALL
GASTEIGER

@<TRIPOS>ATOM
      1 SI         10.4736   10.2211    3.8322 Si      1  UNL1        0.0000
      2 SI         10.0090    7.7460    1.9763 Si      1  UNL1        0.0000
      3 N           9.8365    8.6057    3.4908 N.3     1  UNL1        0.0000
      4 C           9.0097   11.3613    4.2598 C.3     1  UNL1        0.0000
      5 H           9.3188   12.4012    4.2333 H       1  UNL1        0.0000
      6 H           8.6251   11.1527    5.2512 H       1  UNL1        0.0000
      7 H           8.1901   11.2388    3.5579 H       1  UNL1        0.0000
      8 C          11.2897   10.9352    2.2582 C.3     1  UNL1        0.0000
      9 H          11.8582   11.8169    2.5329 H       1  UNL1        0.0000
     10 H          10.5528   11.2412    1.5256 H       1  UNL1        0.0000
     11 H          11.9710   10.2427    1.7793 H       1  UNL1        0.0000
     12 C          11.8241   10.2324    5.1768 C.3     1  UNL1        0.0000
     13 H          12.1935   11.2459    5.2980 H       1  UNL1        0.0000
     14 H          12.6694    9.6032    4.9169 H       1  UNL1        0.0000
     15 H          11.4354    9.9048    6.1332 H       1  UNL1        0.0000
     16 C           9.3744    8.7765    0.4973 C.3     1  UNL1        0.0000
     17 H           9.0101    8.1175   -0.2847 H       1  UNL1        0.0000
     18 H          10.1519    9.3952    0.0654 H       1  UNL1        0.0000
     19 H           8.5549    9.4248    0.7912 H       1  UNL1        0.0000
     20 C          11.8268    7.2037    1.7522 C.3     1  UNL1        0.0000
     21 H          12.0055    6.8967    0.7269 H       1  UNL1        0.0000
     22 H          12.0637    6.3618    2.3954 H       1  UNL1        0.0000
     23 H          12.5244    8.0004    1.9862 H       1  UNL1        0.0000
     24 C           8.9047    6.2041    2.0875 C.3     1  UNL1        0.0000
     25 H           9.1091    5.6291    2.9853 H       1  UNL1        0.0000
     26 H           9.0586    5.5579    1.2302 H       1  UNL1        0.0000
     27 H           7.8575    6.4878    2.1007 H       1  UNL1        0.0000
@<TRIPOS>BOND
     1    17    16    1
     2    18    16    1
     3    16    19    1
     4    16     2    1
     5    21    20    1
     6    26    24    1
     7    10     8    1
     8    20     2    1
     9    20    23    1
    10    20    22    1
    11    11     8    1
    12     2    24    1
    13     2     3    1
    14    24    27    1
    15    24    25    1
    16     8     9    1
    17     8     1    1
    18     3     1    1
    19     7     4    1
    20     1     4    1
    21     1    12    1
    22     5     4    1
    23     4     6    1
    24    14    12    1
    25    12    13    1
    26    12    15    1
