@<TRIPOS>MOLECULE
3
 27 26 0 0 0
SMALL
GASTEIGER

@<TRIPOS>ATOM
      1 SI         10.2730    5.6428    6.1289 Si      1  UNL1        0.0000
      2 SI          7.2841    5.3190    5.5301 Si      1  UNL1        0.0000
      3 N           8.8313    6.0794    5.2544 N.3     1  UNL1        0.0000
      4 C          10.0682    5.6732    8.0264 C.3     1  UNL1        0.0000
      5 H          10.9884    5.3687    8.5150 H       1  UNL1        0.0000
      6 H           9.2810    5.0042    8.3579 H       1  UNL1        0.0000
      7 H           9.8211    6.6724    8.3701 H       1  UNL1        0.0000
      8 C          10.8000    3.8939    5.5516 C.3     1  UNL1        0.0000
      9 H          10.2950    3.1147    6.1080 H       1  UNL1        0.0000
     10 H          11.8654    3.7621    5.7072 H       1  UNL1        0.0000
     11 H          10.5969    3.7333    4.4978 H       1  UNL1        0.0000
     12 C          11.6908    6.8094    5.6254 C.3     1  UNL1        0.0000
     13 H          12.6071    6.2604    5.4383 H       1  UNL1        0.0000
     14 H          11.8897    7.5225    6.4156 H       1  UNL1        0.0000
     15 H          11.4374    7.3690    4.7324 H       1  UNL1        0.0000
     16 C           7.4909    3.5113    6.1007 C.3     1  UNL1        0.0000
     17 H           6.5089    3.0838    6.2720 H       1  UNL1        0.0000
     18 H           8.0503    3.4333    7.0241 H       1  UNL1        0.0000
     19 H           7.9870    2.9045    5.3529 H       1  UNL1        0.0000
     20 C           6.3452    6.2758    6.8924 C.3     1  UNL1        0.0000
     21 H           5.4409    5.7548    7.1911 H       1  UNL1        0.0000
     22 H           6.0580    7.2658    6.5512 H       1  UNL1        0.0000
     23 H           6.9617    6.4078    7.7762 H       1  UNL1        0.0000
     24 C           6.2087    5.2184    3.9539 C.3     1  UNL1        0.0000
     25 H           5.2565    4.7641    4.2082 H       1  UNL1        0.0000
     26 H           6.6630    4.6054    3.1827 H       1  UNL1        0.0000
     27 H           5.9964    6.1955    3.5351 H       1  UNL1        0.0000
@<TRIPOS>BOND
     1    26    24    1
     2    27    24    1
     3    24    25    1
     4    24     2    1
     5    11     8    1
     6    15    12    1
     7     3     2    1
     8     3     1    1
     9    19    16    1
    10    13    12    1
    11     2    16    1
    12     2    20    1
    13     8    10    1
    14     8     9    1
    15     8     1    1
    16    12     1    1
    17    12    14    1
    18    16    17    1
    19    16    18    1
    20     1     4    1
    21    22    20    1
    22    20    21    1
    23    20    23    1
    24     4     6    1
    25     4     7    1
    26     4     5    1
