@<TRIPOS>MOLECULE
2
 25 24 0 0 0
SMALL
GASTEIGER

@<TRIPOS>ATOM
      1 N          -3.0746    3.0574    3.5862 N.4     1  UNL1        0.0000
      2 N          -1.1307    2.6377    5.4262 N.3     1  UNL1        0.0000
      3 B          -3.2262    4.5025    4.2293 B       1  UNL1        0.0000
      4 H          -1.7921    1.1776    3.7908 H       1  UNL1        0.0000
      5 H          -3.0800    1.5444    5.2789 H       1  UNL1        0.0000
      6 B          -2.2765    1.9992    4.5174 B       1  UNL1        0.0000
      7 H          -2.1751    5.0878    4.1858 H       1  UNL1        0.0000
      8 H          -3.5943    4.3335    5.4488 H       1  UNL1        0.0000
      9 H          -4.0677    5.1103    3.6480 H       1  UNL1        0.0000
     10 C          -4.4156    2.4967    3.3757 C.3     1  UNL1        0.0000
     11 H          -4.9768    3.1141    2.6717 H       1  UNL1        0.0000
     12 H          -4.9525    2.4650    4.3206 H       1  UNL1        0.0000
     13 H          -4.3422    1.4820    2.9814 H       1  UNL1        0.0000
     14 C          -2.4625    3.1823    2.2591 C.3     1  UNL1        0.0000
     15 H          -2.4357    2.2118    1.7612 H       1  UNL1        0.0000
     16 H          -1.4478    3.5575    2.3426 H       1  UNL1        0.0000
     17 H          -3.0363    3.8798    1.6455 H       1  UNL1        0.0000
     18 C           0.0246    3.0766    4.6335 C.3     1  UNL1        0.0000
     19 H           0.8526    3.3724    5.2863 H       1  UNL1        0.0000
     20 H          -0.2321    3.9362    4.0175 H       1  UNL1        0.0000
     21 H           0.3730    2.2642    3.9783 H       1  UNL1        0.0000
     22 C          -0.6378    1.5505    6.2901 C.3     1  UNL1        0.0000
     23 H          -0.2508    0.7214    5.6776 H       1  UNL1        0.0000
     24 H          -1.4487    1.1691    6.9121 H       1  UNL1        0.0000
     25 H           0.1715    1.9067    6.9384 H       1  UNL1        0.0000
@<TRIPOS>BOND
     1    17    14    1
     2    15    14    1
     3    14    16    1
     4    14     1    1
     5    11    10    1
     6    13    10    1
     7    10     1    1
     8    10    12    1
     9     1     3    1
    10     1     6    1
    11     9     3    1
    12     4     6    1
    13    21    18    1
    14    20    18    1
    15     7     3    1
    16     3     8    1
    17     6     5    1
    18     6     2    1
    19    18    19    1
    20    18     2    1
    21     2    22    1
    22    23    22    1
    23    22    24    1
    24    22    25    1
