@<TRIPOS>MOLECULE
2
 25 24 0 0 0
SMALL
GASTEIGER

@<TRIPOS>ATOM
      1 N          -0.3810    6.7859    8.1631 N.4     1  UNL1        0.0000
      2 N          -2.9444    6.2530    7.4679 N.3     1  UNL1        0.0000
      3 B           0.0301    5.7414    7.0384 B       1  UNL1        0.0000
      4 H          -0.4466    4.6016    7.3892 H       1  UNL1        0.0000
      5 H           1.2160    5.6674    6.9790 H       1  UNL1        0.0000
      6 H          -0.4253    6.0769    5.9752 H       1  UNL1        0.0000
      7 B          -1.9311    6.6858    8.6221 B       1  UNL1        0.0000
      8 H          -1.9858    5.8195    9.4460 H       1  UNL1        0.0000
      9 H          -2.2487    7.7627    9.0429 H       1  UNL1        0.0000
     10 C           0.4257    6.5223    9.3617 C.3     1  UNL1        0.0000
     11 H           1.4851    6.6718    9.1443 H       1  UNL1        0.0000
     12 H           0.2754    5.4957    9.6867 H       1  UNL1        0.0000
     13 H           0.1288    7.1919   10.1704 H       1  UNL1        0.0000
     14 C          -0.0329    8.1389    7.7160 C.3     1  UNL1        0.0000
     15 H          -0.2214    8.8612    8.5118 H       1  UNL1        0.0000
     16 H          -0.6233    8.4160    6.8489 H       1  UNL1        0.0000
     17 H           1.0226    8.1830    7.4400 H       1  UNL1        0.0000
     18 C          -3.1286    7.3115    6.4670 C.3     1  UNL1        0.0000
     19 H          -3.9356    7.0529    5.7734 H       1  UNL1        0.0000
     20 H          -2.2229    7.4519    5.8802 H       1  UNL1        0.0000
     21 H          -3.3837    8.2636    6.9560 H       1  UNL1        0.0000
     22 C          -4.2558    6.0783    8.1165 C.3     1  UNL1        0.0000
     23 H          -4.5714    7.0162    8.5993 H       1  UNL1        0.0000
     24 H          -4.1957    5.3017    8.8802 H       1  UNL1        0.0000
     25 H          -5.0181    5.7961    7.3807 H       1  UNL1        0.0000
@<TRIPOS>BOND
     1    19    18    1
     2    20    18    1
     3     6     3    1
     4    18    21    1
     5    18     2    1
     6    16    14    1
     7     5     3    1
     8     3     4    1
     9     3     1    1
    10    25    22    1
    11    17    14    1
    12     2    22    1
    13     2     7    1
    14    14     1    1
    15    14    15    1
    16    22    23    1
    17    22    24    1
    18     1     7    1
    19     1    10    1
    20     7     9    1
    21     7     8    1
    22    11    10    1
    23    10    12    1
    24    10    13    1
