@<TRIPOS>MOLECULE
5
 21 20 0 0 0
SMALL
GASTEIGER

@<TRIPOS>ATOM
      1 SI         -2.0960    2.5282    9.6511 Si      1  UNL1        0.0000
      2 H          -0.6796    2.9449    9.3640 H       1  UNL1        0.0000
      3 SI         -4.6196    2.3073    8.0907 Si      1  UNL1        0.0000
      4 H          -5.2676    3.0711    6.9685 H       1  UNL1        0.0000
      5 N          -3.0248    2.9288    8.2600 N.3     1  UNL1        0.0000
      6 C          -2.0195    0.6690   10.0698 C.3     1  UNL1        0.0000
      7 H          -2.9695    0.3192   10.4603 H       1  UNL1        0.0000
      8 H          -1.2648    0.4705   10.8242 H       1  UNL1        0.0000
      9 H          -1.7805    0.0679    9.1986 H       1  UNL1        0.0000
     10 C          -2.6180    3.3894   11.2733 C.3     1  UNL1        0.0000
     11 H          -2.6936    4.4650   11.1519 H       1  UNL1        0.0000
     12 H          -1.8940    3.1969   12.0592 H       1  UNL1        0.0000
     13 H          -3.5806    3.0302   11.6211 H       1  UNL1        0.0000
     14 C          -4.7451    0.4524    7.6552 C.3     1  UNL1        0.0000
     15 H          -4.1231    0.1954    6.8041 H       1  UNL1        0.0000
     16 H          -5.7680    0.1853    7.4079 H       1  UNL1        0.0000
     17 H          -4.4368   -0.1720    8.4870 H       1  UNL1        0.0000
     18 C          -5.7516    2.5454    9.6072 C.3     1  UNL1        0.0000
     19 H          -5.4629    1.8818   10.4156 H       1  UNL1        0.0000
     20 H          -6.7853    2.3260    9.3597 H       1  UNL1        0.0000
     21 H          -5.7123    3.5615    9.9855 H       1  UNL1        0.0000
@<TRIPOS>BOND
     1    15    14    1
     2     4     3    1
     3    16    14    1
     4    14     3    1
     5    14    17    1
     6     3     5    1
     7     3    18    1
     8     5     1    1
     9     9     6    1
    10    20    18    1
    11     2     1    1
    12    18    21    1
    13    18    19    1
    14     1     6    1
    15     1    10    1
    16     6     7    1
    17     6     8    1
    18    11    10    1
    19    10    13    1
    20    10    12    1
