@<TRIPOS>MOLECULE
2
 21 20 0 0 0
SMALL
GASTEIGER

@<TRIPOS>ATOM
      1 SI          6.0280    6.0559    5.2290 Si      1  UNL1        0.0000
      2 N           6.3063    5.2648    3.7210 N.3     1  UNL1        0.0000
      3 C           7.5908    6.8206    6.0097 C.3     1  UNL1        0.0000
      4 C           4.6786    7.3959    5.1766 C.3     1  UNL1        0.0000
      5 H           5.5712    4.9274    6.1385 H       1  UNL1        0.0000
      6 H           7.9878    7.6214    5.3950 H       1  UNL1        0.0000
      7 H           8.3726    6.0774    6.1268 H       1  UNL1        0.0000
      8 H           7.3765    7.2324    6.9907 H       1  UNL1        0.0000
      9 H           5.0200    8.2726    4.6357 H       1  UNL1        0.0000
     10 H           3.7860    7.0276    4.6828 H       1  UNL1        0.0000
     11 H           4.4002    7.7133    6.1760 H       1  UNL1        0.0000
     12 SI          6.5848    6.0558    2.2129 Si      1  UNL1        0.0000
     13 C           5.0221    6.8206    1.4322 C.3     1  UNL1        0.0000
     14 H           4.6250    7.6212    2.0470 H       1  UNL1        0.0000
     15 H           4.2404    6.0774    1.3148 H       1  UNL1        0.0000
     16 H           5.2366    7.2326    0.4513 H       1  UNL1        0.0000
     17 C           7.9343    7.3957    2.2654 C.3     1  UNL1        0.0000
     18 H           7.5929    8.2724    2.8062 H       1  UNL1        0.0000
     19 H           8.8268    7.0273    2.7594 H       1  UNL1        0.0000
     20 H           8.2129    7.7130    1.2660 H       1  UNL1        0.0000
     21 H           7.0416    4.9272    1.3035 H       1  UNL1        0.0000
@<TRIPOS>BOND
     1    16    13    1
     2    20    17    1
     3    21    12    1
     4    15    13    1
     5    13    14    1
     6    13    12    1
     7    12    17    1
     8    12     2    1
     9    17    19    1
    10    17    18    1
    11     2     1    1
    12     9     4    1
    13    10     4    1
    14     4     1    1
    15     4    11    1
    16     1     3    1
    17     1     5    1
    18     6     3    1
    19     3     7    1
    20     3     8    1
