@<TRIPOS>MOLECULE
1
 9 8 0 0 0
SMALL
GASTEIGER

@<TRIPOS>ATOM
      1 N           2.9849   15.9980    4.5935 N.3     1  UNL1       -0.2469
      2 C           3.0660   14.7883    3.8014 C.3     1  UNL1        0.0021
      3 C           3.8760   15.9083    5.7278 C.3     1  UNL1        0.0021
      4 H           2.4276   14.9028    2.9276 H       1  UNL1        0.0405
      5 H           2.7388   13.9111    4.3764 H       1  UNL1        0.0405
      6 H           4.0973   14.6027    3.4701 H       1  UNL1        0.0405
      7 H           3.8319   16.8207    6.3250 H       1  UNL1        0.0405
      8 H           4.9170   15.7624    5.3985 H       1  UNL1        0.0405
      9 H           3.6209   15.0587    6.3788 H       1  UNL1        0.0405
@<TRIPOS>BOND
     1     4     2    1
     2     6     2    1
     3     2     5    1
     4     2     1    1
     5     1     3    1
     6     8     3    1
     7     3     7    1
     8     3     9    1
