@<TRIPOS>MOLECULE
3
 27 26 0 0 0
SMALL
GASTEIGER

@<TRIPOS>ATOM
      1 SI          3.4757   20.6349    3.7907 Si      1  UNL1        0.0000
      2 SI          2.6622   19.8012    6.5891 Si      1  UNL1        0.0000
      3 N           2.5866   19.6108    4.8780 N.3     1  UNL1        0.0000
      4 C           2.4190   20.9791    2.2363 C.3     1  UNL1        0.0000
      5 C           3.9978   22.3260    4.4990 C.3     1  UNL1        0.0000
      6 C           5.0645   19.6903    3.2668 C.3     1  UNL1        0.0000
      7 C           4.4623   19.6672    7.2499 C.3     1  UNL1        0.0000
      8 C           1.6471   18.4522    7.4959 C.3     1  UNL1        0.0000
      9 C           1.9254   21.4567    7.1884 C.3     1  UNL1        0.0000
     10 H           1.6209   21.6848    2.4425 H       1  UNL1        0.0000
     11 H           1.9792   20.0581    1.8642 H       1  UNL1        0.0000
     12 H           3.0307   21.4038    1.4467 H       1  UNL1        0.0000
     13 H           3.1345   22.9081    4.7984 H       1  UNL1        0.0000
     14 H           4.5363   22.8947    3.7487 H       1  UNL1        0.0000
     15 H           4.6454   22.2217    5.3613 H       1  UNL1        0.0000
     16 H           5.6798   19.4378    4.1270 H       1  UNL1        0.0000
     17 H           5.6772   20.2830    2.5943 H       1  UNL1        0.0000
     18 H           4.8045   18.7668    2.7524 H       1  UNL1        0.0000
     19 H           5.0392   20.5422    6.9685 H       1  UNL1        0.0000
     20 H           4.9893   18.7991    6.8618 H       1  UNL1        0.0000
     21 H           4.4773   19.6012    8.3338 H       1  UNL1        0.0000
     22 H           0.5835   18.6105    7.3543 H       1  UNL1        0.0000
     23 H           1.8406   18.5194    8.5629 H       1  UNL1        0.0000
     24 H           1.8707   17.4325    7.1973 H       1  UNL1        0.0000
     25 H           1.0418   21.7198    6.6163 H       1  UNL1        0.0000
     26 H           2.6368   22.2686    7.0943 H       1  UNL1        0.0000
     27 H           1.6363   21.3919    8.2325 H       1  UNL1        0.0000
@<TRIPOS>BOND
     1    12     4    1
     2    11     4    1
     3     4    10    1
     4     4     1    1
     5    17     6    1
     6    18     6    1
     7     6     1    1
     8     6    16    1
     9    14     5    1
    10     1     5    1
    11     1     3    1
    12     5    13    1
    13     5    15    1
    14     3     2    1
    15     2     9    1
    16     2     7    1
    17     2     8    1
    18    25     9    1
    19    20     7    1
    20    19     7    1
    21    26     9    1
    22     9    27    1
    23    24     8    1
    24     7    21    1
    25    22     8    1
    26     8    23    1
