@<TRIPOS>MOLECULE
39
 39 39 0 0 0
SMALL
GASTEIGER

@<TRIPOS>ATOM
      1 P           4.2077    1.3976    5.4642 P.3     1  UNL1        0.0106
      2 C           1.7435    0.3576    6.2034 C.ar    1  UNL1        0.0527
      3 C           2.1748   -0.8587    6.7345 C.ar    1  UNL1       -0.0359
      4 H           3.2209   -1.1187    6.6881 H       1  UNL1        0.0639
      5 C           1.2831   -1.7519    7.3092 C.ar    1  UNL1       -0.0484
      6 C           0.3667    0.6349    6.2474 C.ar    1  UNL1       -0.0359
      7 H           0.0254    1.5717    5.7977 H       1  UNL1        0.0639
      8 C          -0.5335   -0.2434    6.8163 C.ar    1  UNL1       -0.0484
      9 C           1.7922   -3.0534    7.8574 C.3     1  UNL1       -0.0396
     10 H           2.1089   -3.7066    7.0438 H       1  UNL1        0.0278
     11 H           1.0192   -3.5649    8.4257 H       1  UNL1        0.0278
     12 H           2.6513   -2.8881    8.5059 H       1  UNL1        0.0278
     13 C          -0.0657   -1.4386    7.3558 C.ar    1  UNL1       -0.0558
     14 H          -0.7639   -2.1300    7.8054 H       1  UNL1        0.0623
     15 C          -1.9955    0.0879    6.8724 C.3     1  UNL1       -0.0396
     16 H          -2.5970   -0.7912    6.6496 H       1  UNL1        0.0278
     17 H          -2.2407    0.8727    6.1616 H       1  UNL1        0.0278
     18 H          -2.2635    0.4301    7.8731 H       1  UNL1        0.0278
     19 C           4.2492    1.7836    8.2204 C.3     1  UNL1       -0.0573
     20 H           4.6841    1.5997    9.2028 H       1  UNL1        0.0236
     21 H           3.2008    1.4915    8.2501 H       1  UNL1        0.0236
     22 H           4.3046    2.8538    8.0166 H       1  UNL1        0.0236
     23 C           4.7823   -0.1471    4.4947 C.3     1  UNL1       -0.0081
     24 H           5.0585   -0.9450    5.1931 H       1  UNL1        0.0359
     25 C           4.9915    0.9930    7.1500 C.3     1  UNL1       -0.0081
     26 H           4.8951   -0.0765    7.3640 H       1  UNL1        0.0359
     27 C           3.6538   -0.6244    3.5892 C.3     1  UNL1       -0.0573
     28 H           3.2719    0.2072    2.9914 H       1  UNL1        0.0236
     29 H           2.8265   -1.0247    4.1697 H       1  UNL1        0.0236
     30 H           4.0101   -1.4026    2.9144 H       1  UNL1        0.0236
     31 C           6.0024    0.2134    3.6484 C.3     1  UNL1       -0.0573
     32 H           6.4157   -0.6783    3.1779 H       1  UNL1        0.0236
     33 H           6.7848    0.6750    4.2475 H       1  UNL1        0.0236
     34 H           5.7177    0.9097    2.8599 H       1  UNL1        0.0236
     35 C           6.4730    1.3557    7.1379 C.3     1  UNL1       -0.0573
     36 H           6.6100    2.3929    6.8366 H       1  UNL1        0.0236
     37 H           7.0296    0.7181    6.4545 H       1  UNL1        0.0236
     38 H           6.8979    1.2337    8.1340 H       1  UNL1        0.0236
     39 N           2.5520    1.3205    5.6276 N.pl3   1  UNL1       -0.2261
@<TRIPOS>BOND
     1    34    31    1
     2    30    27    1
     3    28    27    1
     4    32    31    1
     5    27    29    1
     6    27    23    1
     7    31    33    1
     8    31    23    1
     9    23    24    1
    10    23     1    1
    11     1    39    1
    12     1    25    1
    13    39     2    1
    14     7     6    1
    15    17    15    1
    16     2     6   ar
    17     2     3   ar
    18     6     8   ar
    19    37    35    1
    20    16    15    1
    21     4     3    1
    22     3     5   ar
    23     8    15    1
    24     8    13   ar
    25    36    35    1
    26    15    18    1
    27    10     9    1
    28    35    25    1
    29    35    38    1
    30    25    26    1
    31    25    19    1
    32     5    13   ar
    33     5     9    1
    34    13    14    1
    35     9    11    1
    36     9    12    1
    37    22    19    1
    38    19    21    1
    39    19    20    1
