@<TRIPOS>MOLECULE
39
 39 39 0 0 0
SMALL
GASTEIGER

@<TRIPOS>ATOM
      1 P           0.2387    4.6010    6.0304 P.3     1  UNL1        0.0106
      2 C           2.7668    5.5593    6.6105 C.ar    1  UNL1        0.0527
      3 C           2.4200    6.7019    7.3362 C.ar    1  UNL1       -0.0359
      4 H           1.3860    7.0079    7.3812 H       1  UNL1        0.0639
      5 C           4.1274    5.2012    6.5753 C.ar    1  UNL1       -0.0359
      6 H           4.4005    4.2983    6.0180 H       1  UNL1        0.0639
      7 C           5.0915    5.9433    7.2267 C.ar    1  UNL1       -0.0484
      8 C           4.7101    7.0797    7.9353 C.ar    1  UNL1       -0.0558
      9 H           5.4608    7.6653    8.4464 H       1  UNL1        0.0623
     10 C           3.3778    7.4583    7.9933 C.ar    1  UNL1       -0.0484
     11 C          -1.9784    5.9513    5.0110 C.3     1  UNL1       -0.0573
     12 H          -2.5238    6.8714    4.8013 H       1  UNL1        0.0236
     13 H          -2.5834    5.3370    5.6728 H       1  UNL1        0.0236
     14 H          -1.8428    5.4079    4.0774 H       1  UNL1        0.0236
     15 C          -0.1250    4.5295    7.8895 C.3     1  UNL1       -0.0081
     16 H           0.0592    5.5125    8.3376 H       1  UNL1        0.0359
     17 C           0.8192    3.5137    8.5221 C.3     1  UNL1       -0.0573
     18 H           0.6289    3.4308    9.5922 H       1  UNL1        0.0236
     19 H           1.8565    3.8153    8.3840 H       1  UNL1        0.0236
     20 H           0.6802    2.5298    8.0718 H       1  UNL1        0.0236
     21 C           6.5376    5.5402    7.1894 C.3     1  UNL1       -0.0396
     22 H           6.8818    5.2790    8.1899 H       1  UNL1        0.0278
     23 H           7.1571    6.3621    6.8310 H       1  UNL1        0.0278
     24 H           6.6882    4.6794    6.5409 H       1  UNL1        0.0278
     25 C          -0.6165    6.2630    5.6261 C.3     1  UNL1       -0.0081
     26 H          -0.7567    6.8516    6.5404 H       1  UNL1        0.0359
     27 C          -1.5765    4.1297    8.1319 C.3     1  UNL1       -0.0573
     28 H          -1.8082    3.2081    7.6009 H       1  UNL1        0.0236
     29 H          -2.2616    4.9064    7.8006 H       1  UNL1        0.0236
     30 H          -1.7465    3.9626    9.1956 H       1  UNL1        0.0236
     31 C           0.2172    7.0552    4.6272 C.3     1  UNL1       -0.0573
     32 H           0.3769    6.4581    3.7279 H       1  UNL1        0.0236
     33 H           1.1858    7.3247    5.0438 H       1  UNL1        0.0236
     34 H          -0.2995    7.9716    4.3412 H       1  UNL1        0.0236
     35 C           2.9577    8.6709    8.7716 C.3     1  UNL1       -0.0396
     36 H           2.2441    9.2661    8.2040 H       1  UNL1        0.0278
     37 H           3.8153    9.2924    9.0181 H       1  UNL1        0.0278
     38 H           2.4754    8.3702    9.7022 H       1  UNL1        0.0278
     39 N           1.8966    4.7682    5.8879 N.pl3   1  UNL1       -0.2261
@<TRIPOS>BOND
     1    32    31    1
     2    14    11    1
     3    34    31    1
     4    31    33    1
     5    31    25    1
     6    12    11    1
     7    11    25    1
     8    11    13    1
     9    25     1    1
    10    25    26    1
    11    39     1    1
    12    39     2    1
    13     6     5    1
    14     1    15    1
    15    24    21    1
    16     5     2   ar
    17     5     7   ar
    18     2     3   ar
    19    23    21    1
    20    21     7    1
    21    21    22    1
    22     7     8   ar
    23     3     4    1
    24     3    10   ar
    25    28    27    1
    26    29    27    1
    27    15    27    1
    28    15    16    1
    29    15    17    1
    30     8    10   ar
    31     8     9    1
    32    10    35    1
    33    20    17    1
    34    27    30    1
    35    36    35    1
    36    19    17    1
    37    17    18    1
    38    35    37    1
    39    35    38    1
