@<TRIPOS>MOLECULE
1
 9 8 0 0 0
SMALL
GASTEIGER

@<TRIPOS>ATOM
      1 N           4.7766    2.6664   12.0278 N.3     1  UNL1       -0.2469
      2 C           3.3820    2.2776   11.9447 C.3     1  UNL1        0.0021
      3 C           5.3398    2.2831   13.3051 C.3     1  UNL1        0.0021
      4 H           2.9478    2.6547   11.0125 H       1  UNL1        0.0405
      5 H           2.7990    2.6654   12.7969 H       1  UNL1        0.0405
      6 H           3.2767    1.1811   11.9597 H       1  UNL1        0.0405
      7 H           6.3736    2.6263   13.3830 H       1  UNL1        0.0405
      8 H           5.3358    1.1879   13.4173 H       1  UNL1        0.0405
      9 H           4.7677    2.6981   14.1512 H       1  UNL1        0.0405
@<TRIPOS>BOND
     1     4     2    1
     2     2     6    1
     3     2     1    1
     4     2     5    1
     5     1     3    1
     6     3     7    1
     7     3     8    1
     8     3     9    1
