@<TRIPOS>MOLECULE
1
 9 8 0 0 0
SMALL
GASTEIGER

@<TRIPOS>ATOM
      1 N          -2.6145    4.7811    2.0279 N.3     1  UNL1       -0.2469
      2 C          -2.7740    6.0133    2.7799 C.3     1  UNL1        0.0021
      3 H          -2.5979    6.8982    2.1455 H       1  UNL1        0.0405
      4 H          -2.0728    6.0346    3.6181 H       1  UNL1        0.0405
      5 H          -3.7968    6.1019    3.1764 H       1  UNL1        0.0405
      6 C          -3.6086    4.7258    0.9751 C.3     1  UNL1        0.0021
      7 H          -3.4574    5.5309    0.2354 H       1  UNL1        0.0405
      8 H          -4.6211    4.8506    1.3890 H       1  UNL1        0.0405
      9 H          -3.5768    3.7695    0.4531 H       1  UNL1        0.0405
@<TRIPOS>BOND
     1     7     6    1
     2     9     6    1
     3     6     8    1
     4     6     1    1
     5     1     2    1
     6     3     2    1
     7     2     5    1
     8     2     4    1
