@<TRIPOS>MOLECULE
1
 9 8 0 0 0
SMALL
GASTEIGER

@<TRIPOS>ATOM
      1 N           0.2507    4.7811    3.0366 N.3     1  UNL1       -0.2469
      2 C           0.4102    6.0133    2.2847 C.3     1  UNL1        0.0021
      3 C           1.2448    4.7258    4.0895 C.3     1  UNL1        0.0021
      4 H           0.2341    6.8982    2.9190 H       1  UNL1        0.0405
      5 H          -0.2910    6.0346    1.4465 H       1  UNL1        0.0405
      6 H           1.4330    6.1019    1.8881 H       1  UNL1        0.0405
      7 H           1.0936    5.5309    4.8292 H       1  UNL1        0.0405
      8 H           2.2573    4.8506    3.6755 H       1  UNL1        0.0405
      9 H           1.2130    3.7695    4.6114 H       1  UNL1        0.0405
@<TRIPOS>BOND
     1     5     2    1
     2     6     2    1
     3     2     4    1
     4     2     1    1
     5     1     3    1
     6     8     3    1
     7     3     9    1
     8     3     7    1
