@<TRIPOS>MOLECULE
1
 9 8 0 0 0
SMALL
GASTEIGER

@<TRIPOS>ATOM
      1 N           4.7727    3.6124    9.1287 N.3     1  UNL1       -0.2469
      2 C           4.8484    2.1931    8.8228 C.3     1  UNL1        0.0021
      3 C           4.9417    4.3789    7.9104 C.3     1  UNL1        0.0021
      4 H           4.8729    1.6135    9.7475 H       1  UNL1        0.0405
      5 H           5.7508    1.9529    8.2404 H       1  UNL1        0.0405
      6 H           3.9800    1.8761    8.2240 H       1  UNL1        0.0405
      7 H           4.9960    5.4479    8.1264 H       1  UNL1        0.0405
      8 H           4.0938    4.2111    7.2267 H       1  UNL1        0.0405
      9 H           5.8563    4.0868    7.3697 H       1  UNL1        0.0405
@<TRIPOS>BOND
     1     8     3    1
     2     9     3    1
     3     3     7    1
     4     3     1    1
     5     6     2    1
     6     5     2    1
     7     2     1    1
     8     2     4    1
