@<TRIPOS>MOLECULE
1
 11 11 0 0 0
SMALL
GASTEIGER

@<TRIPOS>ATOM
      1 N           7.1598    1.3114   15.1541 N.pl3   1  UNL1       -0.2487
      2 C           8.1956    1.9513   15.6825 C.3     1  UNL1        0.0840
      3 C           9.3116    1.2965   16.1804 C.2     1  UNL1       -0.0600
      4 C           9.3530   -0.0876   16.1225 C.2     1  UNL1       -0.0626
      5 C           8.2722   -0.7553   15.5687 C.2     1  UNL1       -0.0466
      6 C           7.1960   -0.0159   15.1005 C.2     1  UNL1        0.0121
      7 H           8.1291    3.0314   15.6936 H       1  UNL1        0.0584
      8 H          10.1288    1.8600   16.6033 H       1  UNL1        0.0592
      9 H          10.2058   -0.6321   16.5009 H       1  UNL1        0.0615
     10 H           8.2579   -1.8319   15.5018 H       1  UNL1        0.0630
     11 H           6.3208   -0.4978   14.6806 H       1  UNL1        0.0797
@<TRIPOS>BOND
     1    11     6    1
     2     6     1    1
     3     6     5    2
     4     1     2    1
     5    10     5    1
     6     5     4    1
     7     2     7    1
     8     2     3    1
     9     4     3    2
    10     4     9    1
    11     3     8    1
