@<TRIPOS>MOLECULE
1
 11 11 0 0 0
SMALL
GASTEIGER

@<TRIPOS>ATOM
      1 N          16.0355    1.1435   18.2167 N.pl3   1  UNL1       -0.2487
      2 C          14.9809    1.8341   17.8024 C.3     1  UNL1        0.0840
      3 H          15.1071    2.9078   17.7766 H       1  UNL1        0.0584
      4 C          13.7853    1.2342   17.4400 C.2     1  UNL1       -0.0600
      5 H          12.9536    1.8355   17.1079 H       1  UNL1        0.0592
      6 C          13.6843   -0.1462   17.5174 C.2     1  UNL1       -0.0626
      7 H          12.7676   -0.6487   17.2456 H       1  UNL1        0.0615
      8 C          14.7861   -0.8664   17.9519 C.2     1  UNL1       -0.0466
      9 H          14.7533   -1.9417   18.0291 H       1  UNL1        0.0630
     10 C          15.9419   -0.1792   18.2898 C.2     1  UNL1        0.0121
     11 H          16.8347   -0.6918   18.6252 H       1  UNL1        0.0797
@<TRIPOS>BOND
     1     5     4    1
     2     7     6    1
     3     4     6    2
     4     4     2    1
     5     6     8    1
     6     3     2    1
     7     2     1    1
     8     8     9    1
     9     8    10    2
    10     1    10    1
    11    10    11    1
