@<TRIPOS>MOLECULE
1
 11 11 0 0 0
SMALL
GASTEIGER

@<TRIPOS>ATOM
      1 N           3.0080    0.0567   10.9842 N.pl3   1  UNL1       -0.2487
      2 C           1.7606    0.4690   10.8021 C.3     1  UNL1        0.0840
      3 C           0.7123   -0.3928   10.5219 C.2     1  UNL1       -0.0600
      4 C           0.9779   -1.7500   10.4280 C.2     1  UNL1       -0.0626
      5 C           2.2802   -2.1827   10.6209 C.2     1  UNL1       -0.0466
      6 C           3.2612   -1.2435   10.8982 C.2     1  UNL1        0.0121
      7 H           1.5932    1.5347   10.8849 H       1  UNL1        0.0584
      8 H          -0.2863   -0.0093   10.3812 H       1  UNL1        0.0592
      9 H           0.1871   -2.4524   10.2096 H       1  UNL1        0.0615
     10 H           2.5341   -3.2289   10.5576 H       1  UNL1        0.0630
     11 H           4.2900   -1.5302   11.0583 H       1  UNL1        0.0797
@<TRIPOS>BOND
     1     9     4    1
     2     8     3    1
     3     4     3    2
     4     4     5    1
     5     3     2    1
     6    10     5    1
     7     5     6    2
     8     2     7    1
     9     2     1    1
    10     6     1    1
    11     6    11    1
