@<TRIPOS>MOLECULE
1
 21 20 0 0 0
SMALL
GASTEIGER

@<TRIPOS>ATOM
      1 N           1.9808    3.0148    2.0019 N.3     1  UNL1       -0.2348
      2 C           1.0391    2.0109    2.4667 C.3     1  UNL1        0.0200
      3 C           1.5703    1.2665    3.6974 C.3     1  UNL1       -0.0484
      4 C           0.7026    1.0253    1.3414 C.3     1  UNL1       -0.0484
      5 C           1.4815    4.3711    2.1183 C.3     1  UNL1        0.0200
      6 C           1.2466    4.7868    3.5793 C.3     1  UNL1       -0.0484
      7 C           0.2175    4.6248    1.2794 C.3     1  UNL1       -0.0484
      8 H           0.0994    2.4947    2.7615 H       1  UNL1        0.0471
      9 H           0.8380    0.5318    4.0228 H       1  UNL1        0.0245
     10 H           2.5006    0.7601    3.4643 H       1  UNL1        0.0245
     11 H           1.7515    1.9635    4.5116 H       1  UNL1        0.0245
     12 H          -0.0884    0.3534    1.6653 H       1  UNL1        0.0245
     13 H           0.3632    1.5647    0.4599 H       1  UNL1        0.0245
     14 H           1.5744    0.4366    1.0770 H       1  UNL1        0.0245
     15 H           2.2689    5.0302    1.7371 H       1  UNL1        0.0471
     16 H           2.1506    4.6193    4.1600 H       1  UNL1        0.0245
     17 H           0.9963    5.8443    3.6194 H       1  UNL1        0.0245
     18 H           0.4321    4.2255    4.0298 H       1  UNL1        0.0245
     19 H           0.0373    5.6947    1.2057 H       1  UNL1        0.0245
     20 H           0.3454    4.2218    0.2770 H       1  UNL1        0.0245
     21 H          -0.6614    4.1648    1.7238 H       1  UNL1        0.0245
@<TRIPOS>BOND
     1    20     7    1
     2    13     4    1
     3    14     4    1
     4    19     7    1
     5     7    21    1
     6     7     5    1
     7     4    12    1
     8     4     2    1
     9    15     5    1
    10     1     5    1
    11     1     2    1
    12     5     6    1
    13     2     8    1
    14     2     3    1
    15    10     3    1
    16     6    17    1
    17     6    18    1
    18     6    16    1
    19     3     9    1
    20     3    11    1
