@<TRIPOS>MOLECULE
1
 11 11 0 0 0
SMALL
GASTEIGER

@<TRIPOS>ATOM
      1 N           6.8296    0.3264    2.0488 N.pl3   1  UNL1       -0.2487
      2 C           6.0875    0.5922    0.9734 C.3     1  UNL1        0.0840
      3 C           5.9986   -0.2664   -0.1115 C.2     1  UNL1       -0.0600
      4 C           6.7155   -1.4530   -0.0895 C.2     1  UNL1       -0.0626
      5 C           7.4708   -1.7398    1.0365 C.2     1  UNL1       -0.0466
      6 C           7.4897   -0.8296    2.0825 C.2     1  UNL1        0.0121
      7 H           5.5520    1.5402    0.9967 H       1  UNL1        0.0584
      8 H           5.3837   -0.0036   -0.9577 H       1  UNL1        0.0592
      9 H           6.6819   -2.1386   -0.9233 H       1  UNL1        0.0615
     10 H           8.0340   -2.6578    1.1080 H       1  UNL1        0.0630
     11 H           8.0595   -1.0330    2.9834 H       1  UNL1        0.0797
@<TRIPOS>BOND
     1     8     3    1
     2     9     4    1
     3     3     4    2
     4     3     2    1
     5     4     5    1
     6     2     7    1
     7     2     1    1
     8     5    10    1
     9     5     6    2
    10     1     6    1
    11     6    11    1
