@<TRIPOS>MOLECULE
1
 15 14 0 0 0
SMALL
GASTEIGER

@<TRIPOS>ATOM
      1 N           6.7009    9.0257   18.6352 N.3     1  UNL1       -0.2508
      2 H           5.7214    9.0427   18.3342 H       1  UNL1        0.1412
      3 C           7.4489    9.8816   17.7330 C.3     1  UNL1        0.0249
      4 C           7.0337   11.3606   17.9086 C.3     1  UNL1       -0.0460
      5 H           7.2946   11.7192   18.9001 H       1  UNL1        0.0248
      6 H           5.9575   11.4622   17.7753 H       1  UNL1        0.0248
      7 H           7.5340   11.9856   17.1730 H       1  UNL1        0.0248
      8 C           8.9476    9.7269   18.0288 C.3     1  UNL1       -0.0460
      9 H           9.1491    9.9109   19.0873 H       1  UNL1        0.0248
     10 H           9.5254   10.4354   17.4385 H       1  UNL1        0.0248
     11 H           9.2774    8.7178   17.7789 H       1  UNL1        0.0248
     12 C           7.1762    9.4961   16.2642 C.3     1  UNL1       -0.0460
     13 H           7.4160    8.4493   16.0954 H       1  UNL1        0.0248
     14 H           7.7761   10.1061   15.5932 H       1  UNL1        0.0248
     15 H           6.1255    9.6514   16.0262 H       1  UNL1        0.0248
@<TRIPOS>BOND
     1    14    12    1
     2    15    12    1
     3    13    12    1
     4    12     3    1
     5     7     4    1
     6    10     8    1
     7     3     4    1
     8     3     8    1
     9     3     1    1
    10     6     4    1
    11    11     8    1
    12     4     5    1
    13     8     9    1
    14     2     1    1
