@<TRIPOS>MOLECULE
1
 11 11 0 0 0
SMALL
GASTEIGER

@<TRIPOS>ATOM
      1 N          12.0408    9.3119    2.5595 N.pl3   1  UNL1       -0.2487
      2 C          11.2227    9.9779    1.7035 C.3     1  UNL1        0.0840
      3 H          10.8140   10.9086    2.0796 H       1  UNL1        0.0584
      4 C          12.3051    7.6298    0.8559 C.2     1  UNL1       -0.0466
      5 H          12.7575    6.6975    0.5549 H       1  UNL1        0.0630
      6 C          12.5755    8.1480    2.0995 C.2     1  UNL1        0.0121
      7 H          13.2508    7.6491    2.7908 H       1  UNL1        0.0797
      8 C          11.4514    8.3160   -0.0074 C.2     1  UNL1       -0.0626
      9 H          11.2203    7.9306   -0.9872 H       1  UNL1        0.0615
     10 C          10.9152    9.5204    0.4433 C.2     1  UNL1       -0.0600
     11 H          10.2624   10.1045   -0.1861 H       1  UNL1        0.0592
@<TRIPOS>BOND
     1     9     8    1
     2    11    10    1
     3     8    10    2
     4     8     4    1
     5    10     2    1
     6     5     4    1
     7     4     6    2
     8     2     3    1
     9     2     1    1
    10     6     1    1
    11     6     7    1
