@<TRIPOS>MOLECULE
1
 11 11 0 0 0
SMALL
GASTEIGER

@<TRIPOS>ATOM
      1 N          13.9686    9.9369    5.1688 N.pl3   1  UNL1       -0.2487
      2 C          14.5808   11.1406    5.4525 C.3     1  UNL1        0.0840
      3 H          14.2365   11.9880    4.8792 H       1  UNL1        0.0584
      4 C          14.4985    8.8656    5.8583 C.2     1  UNL1        0.0121
      5 H          14.0574    7.9047    5.6073 H       1  UNL1        0.0797
      6 C          16.0718   10.2003    7.0851 C.2     1  UNL1       -0.0626
      7 H          16.8556   10.3011    7.8165 H       1  UNL1        0.0615
      8 C          15.5938   11.2931    6.3664 C.2     1  UNL1       -0.0600
      9 H          16.0138   12.2751    6.5226 H       1  UNL1        0.0592
     10 C          15.5021    8.9607    6.7863 C.2     1  UNL1       -0.0466
     11 H          15.8466    8.0666    7.2828 H       1  UNL1        0.0630
@<TRIPOS>BOND
     1     3     2    1
     2     1     2    1
     3     1     4    1
     4     2     8    1
     5     5     4    1
     6     4    10    2
     7     8     9    1
     8     8     6    2
     9    10     6    1
    10    10    11    1
    11     6     7    1
