@<TRIPOS>MOLECULE
1
 11 11 0 0 0
SMALL
GASTEIGER

@<TRIPOS>ATOM
      1 N          11.9056   10.4187    6.5443 N.pl3   1  UNL1       -0.2487
      2 C          12.1838   11.7257    6.8745 C.3     1  UNL1        0.0840
      3 H          11.9214   12.4628    6.1231 H       1  UNL1        0.0584
      4 C          12.1745    9.4979    7.5356 C.2     1  UNL1        0.0121
      5 H          11.9052    8.4753    7.2859 H       1  UNL1        0.0797
      6 C          12.7292    9.8209    8.7452 C.2     1  UNL1       -0.0466
      7 H          12.9188    9.0404    9.4659 H       1  UNL1        0.0630
      8 C          12.7398   12.1027    8.0728 C.2     1  UNL1       -0.0600
      9 H          12.9357   13.1485    8.2554 H       1  UNL1        0.0592
     10 C          13.0485   11.1490    9.0413 C.2     1  UNL1       -0.0626
     11 H          13.4916   11.4243    9.9834 H       1  UNL1        0.0615
@<TRIPOS>BOND
     1     3     2    1
     2     1     2    1
     3     1     4    1
     4     2     8    1
     5     5     4    1
     6     4     6    2
     7     8     9    1
     8     8    10    2
     9     6    10    1
    10     6     7    1
    11    10    11    1
