@<TRIPOS>MOLECULE
1
 21 20 0 0 0
SMALL
GASTEIGER

@<TRIPOS>ATOM
      1 N          17.9417    3.6620    1.9101 N.3     1  UNL1        0.0000
      2 SI         19.5388    3.7439    1.2620 Si      1  UNL1        0.0000
      3 H          20.4276    4.3412    2.2981 H       1  UNL1        0.0000
      4 SI         16.5637    3.5081    0.8875 Si      1  UNL1        0.0000
      5 H          15.3937    3.3035    1.7940 H       1  UNL1        0.0000
      6 C          19.7110    4.8307   -0.3072 C.3     1  UNL1        0.0000
      7 H          19.2669    4.3348   -1.1643 H       1  UNL1        0.0000
      8 H          20.7570    5.0037   -0.5426 H       1  UNL1        0.0000
      9 H          19.2336    5.7998   -0.2077 H       1  UNL1        0.0000
     10 C          20.3331    2.0902    0.7226 C.3     1  UNL1        0.0000
     11 H          20.6809    1.5141    1.5724 H       1  UNL1        0.0000
     12 H          21.1913    2.2759    0.0839 H       1  UNL1        0.0000
     13 H          19.6387    1.4703    0.1651 H       1  UNL1        0.0000
     14 C          16.1553    5.0623   -0.1570 C.3     1  UNL1        0.0000
     15 H          16.1920    5.9679    0.4423 H       1  UNL1        0.0000
     16 H          15.1580    4.9899   -0.5804 H       1  UNL1        0.0000
     17 H          16.8488    5.1846   -0.9817 H       1  UNL1        0.0000
     18 C          16.6015    2.0374   -0.3273 C.3     1  UNL1        0.0000
     19 H          17.4312    2.1160   -1.0222 H       1  UNL1        0.0000
     20 H          15.6872    1.9887   -0.9101 H       1  UNL1        0.0000
     21 H          16.6995    1.0969    0.2048 H       1  UNL1        0.0000
@<TRIPOS>BOND
     1     7     6    1
     2    19    18    1
     3    17    14    1
     4    20    18    1
     5    16    14    1
     6     8     6    1
     7    18    21    1
     8    18     4    1
     9     6     9    1
    10     6     2    1
    11    14    15    1
    12    14     4    1
    13    12    10    1
    14    13    10    1
    15    10     2    1
    16    10    11    1
    17     4     5    1
    18     4     1    1
    19     2     1    1
    20     2     3    1
