@<TRIPOS>MOLECULE
1
 21 20 0 0 0
SMALL
GASTEIGER

@<TRIPOS>ATOM
      1 N          19.0896    3.5684    5.6206 N.3     1  UNL1        0.0000
      2 SI         18.8792    4.2031    7.2063 Si      1  UNL1        0.0000
      3 H          17.9304    5.3597    7.1395 H       1  UNL1        0.0000
      4 SI         20.4932    2.6484    5.2200 Si      1  UNL1        0.0000
      5 H          20.2426    2.0033    3.9055 H       1  UNL1        0.0000
      6 C          20.4423    4.9238    8.0373 C.3     1  UNL1        0.0000
      7 H          21.1970    4.1583    8.1793 H       1  UNL1        0.0000
      8 H          20.2063    5.3324    9.0150 H       1  UNL1        0.0000
      9 H          20.8865    5.7201    7.4485 H       1  UNL1        0.0000
     10 C          18.2026    2.9241    8.4569 C.3     1  UNL1        0.0000
     11 H          18.9950    2.2751    8.8156 H       1  UNL1        0.0000
     12 H          17.4406    2.2986    8.0060 H       1  UNL1        0.0000
     13 H          17.7632    3.4112    9.3216 H       1  UNL1        0.0000
     14 C          22.1043    3.6641    5.0281 C.3     1  UNL1        0.0000
     15 H          22.9526    3.0067    4.8649 H       1  UNL1        0.0000
     16 H          22.3193    4.2648    5.9056 H       1  UNL1        0.0000
     17 H          22.0449    4.3306    4.1731 H       1  UNL1        0.0000
     18 C          20.8886    1.2616    6.4763 C.3     1  UNL1        0.0000
     19 H          21.2685    1.6693    7.4072 H       1  UNL1        0.0000
     20 H          21.6395    0.5805    6.0879 H       1  UNL1        0.0000
     21 H          20.0033    0.6799    6.7123 H       1  UNL1        0.0000
@<TRIPOS>BOND
     1     5     4    1
     2    17    14    1
     3    15    14    1
     4    14     4    1
     5    14    16    1
     6     4     1    1
     7     4    18    1
     8     1     2    1
     9    20    18    1
    10    18    21    1
    11    18    19    1
    12     3     2    1
    13     2     6    1
    14     2    10    1
    15     9     6    1
    16    12    10    1
    17     6     7    1
    18     6     8    1
    19    10    11    1
    20    10    13    1
