@<TRIPOS>MOLECULE
3
 27 26 0 0 0
SMALL
GASTEIGER

@<TRIPOS>ATOM
      1 SI          7.7716   14.9782    7.6197 Si      1  UNL1        0.0000
      2 SI          8.3745   12.4573    6.0875 Si      1  UNL1        0.0000
      3 N           7.4300   13.3254    7.2363 N.3     1  UNL1        0.0000
      4 C           6.2573   15.6441    8.5824 C.3     1  UNL1        0.0000
      5 H           5.3905   15.7686    7.9379 H       1  UNL1        0.0000
      6 H           6.4715   16.6135    9.0217 H       1  UNL1        0.0000
      7 H           5.9940   14.9662    9.3938 H       1  UNL1        0.0000
      8 C           8.0819   16.1096    6.1006 C.3     1  UNL1        0.0000
      9 H           8.3919   17.0988    6.4219 H       1  UNL1        0.0000
     10 H           7.2102   16.2337    5.4691 H       1  UNL1        0.0000
     11 H           8.8774   15.7029    5.4856 H       1  UNL1        0.0000
     12 C           9.3428   15.2514    8.6823 C.3     1  UNL1        0.0000
     13 H           9.3740   14.5967    9.5438 H       1  UNL1        0.0000
     14 H           9.3924   16.2746    9.0431 H       1  UNL1        0.0000
     15 H          10.2378   15.0708    8.0971 H       1  UNL1        0.0000
     16 C           8.1076   10.5931    6.4538 C.3     1  UNL1        0.0000
     17 H           8.4868   10.3246    7.4371 H       1  UNL1        0.0000
     18 H           8.6265    9.9735    5.7286 H       1  UNL1        0.0000
     19 H           7.0484   10.3373    6.3964 H       1  UNL1        0.0000
     20 C           7.8341   12.7352    4.2660 C.3     1  UNL1        0.0000
     21 H           6.8301   12.3608    4.0922 H       1  UNL1        0.0000
     22 H           8.4976   12.2236    3.5759 H       1  UNL1        0.0000
     23 H           7.8468   13.7890    4.0090 H       1  UNL1        0.0000
     24 C          10.2571   12.7753    6.1620 C.3     1  UNL1        0.0000
     25 H          10.4874   13.7897    5.8575 H       1  UNL1        0.0000
     26 H          10.8003   12.1034    5.5054 H       1  UNL1        0.0000
     27 H          10.6413   12.6393    7.1669 H       1  UNL1        0.0000
@<TRIPOS>BOND
     1    22    20    1
     2    23    20    1
     3    21    20    1
     4    20     2    1
     5    10     8    1
     6    11     8    1
     7    26    24    1
     8    18    16    1
     9    25    24    1
    10     2    24    1
    11     2    16    1
    12     2     3    1
    13     8     9    1
    14     8     1    1
    15    24    27    1
    16    19    16    1
    17    16    17    1
    18     3     1    1
    19     1     4    1
    20     1    12    1
    21     5     4    1
    22    15    12    1
    23     4     6    1
    24     4     7    1
    25    12    14    1
    26    12    13    1
