@<TRIPOS>MOLECULE
3
 27 26 0 0 0
SMALL
GASTEIGER

@<TRIPOS>ATOM
      1 SI          4.2271   13.1097   11.1541 Si      1  UNL1        0.0000
      2 SI          7.1814   12.7163   11.3936 Si      1  UNL1        0.0000
      3 N           5.7382   12.6820   10.4422 N.3     1  UNL1        0.0000
      4 C           3.0950   13.5849    9.6765 C.3     1  UNL1        0.0000
      5 H           3.4539   14.4861    9.1808 H       1  UNL1        0.0000
      6 H           2.0779   13.7857    9.9999 H       1  UNL1        0.0000
      7 H           3.0522   12.7746    8.9446 H       1  UNL1        0.0000
      8 C           4.2218   14.6182   12.3291 C.3     1  UNL1        0.0000
      9 H           4.7445   14.3856   13.2498 H       1  UNL1        0.0000
     10 H           3.2095   14.9081   12.5930 H       1  UNL1        0.0000
     11 H           4.7057   15.4795   11.8819 H       1  UNL1        0.0000
     12 C           3.4193   11.6780   12.1411 C.3     1  UNL1        0.0000
     13 H           3.4822   10.7347   11.6082 H       1  UNL1        0.0000
     14 H           2.3731   11.8740   12.3552 H       1  UNL1        0.0000
     15 H           3.9235   11.5488   13.0923 H       1  UNL1        0.0000
     16 C           8.6104   12.0121   10.3279 C.3     1  UNL1        0.0000
     17 H           8.7162   10.9401   10.4425 H       1  UNL1        0.0000
     18 H           9.5574   12.4524   10.6244 H       1  UNL1        0.0000
     19 H           8.4606   12.2382    9.2707 H       1  UNL1        0.0000
     20 C           7.0152   11.6877   13.0031 C.3     1  UNL1        0.0000
     21 H           6.3475   10.8439   12.8687 H       1  UNL1        0.0000
     22 H           6.6009   12.3003   13.7964 H       1  UNL1        0.0000
     23 H           7.9730   11.3117   13.3476 H       1  UNL1        0.0000
     24 C           7.7285   14.4576   11.9817 C.3     1  UNL1        0.0000
     25 H           7.6978   15.1855   11.1791 H       1  UNL1        0.0000
     26 H           8.7428   14.4367   12.3695 H       1  UNL1        0.0000
     27 H           7.0869   14.8198   12.7771 H       1  UNL1        0.0000
@<TRIPOS>BOND
     1     7     4    1
     2     5     4    1
     3    19    16    1
     4     4     6    1
     5     4     1    1
     6    16    17    1
     7    16    18    1
     8    16     2    1
     9     3     1    1
    10     3     2    1
    11     1    12    1
    12     1     8    1
    13    25    24    1
    14     2    24    1
    15     2    20    1
    16    13    12    1
    17    11     8    1
    18    24    26    1
    19    24    27    1
    20    12    14    1
    21    12    15    1
    22     8    10    1
    23     8     9    1
    24    21    20    1
    25    20    23    1
    26    20    22    1
