@<TRIPOS>MOLECULE
1
 11 11 0 0 0
SMALL
GASTEIGER

@<TRIPOS>ATOM
      1 N          10.9498   16.9069   13.8591 N.pl3   1  UNL1       -0.2487
      2 C          11.6799   17.9700   13.5361 C.3     1  UNL1        0.0840
      3 C          12.9317   17.8668   12.9450 C.2     1  UNL1       -0.0600
      4 C          13.4438   16.6095   12.6731 C.2     1  UNL1       -0.0626
      5 C          12.6809   15.4993   13.0150 C.2     1  UNL1       -0.0466
      6 C          11.4462   15.6988   13.6072 C.2     1  UNL1        0.0121
      7 H          11.2481   18.9388   13.7556 H       1  UNL1        0.0584
      8 H          13.4833   18.7621   12.7053 H       1  UNL1        0.0592
      9 H          14.4118   16.4904   12.2096 H       1  UNL1        0.0615
     10 H          13.0432   14.5000   12.8273 H       1  UNL1        0.0630
     11 H          10.8309   14.8512   13.8975 H       1  UNL1        0.0797
@<TRIPOS>BOND
     1     9     4    1
     2     4     3    2
     3     4     5    1
     4     8     3    1
     5    10     5    1
     6     3     2    1
     7     5     6    2
     8     2     7    1
     9     2     1    1
    10     6     1    1
    11     6    11    1
