@<TRIPOS>MOLECULE
1
 6 5 0 0 0
SMALL
GASTEIGER

@<TRIPOS>ATOM
      1 N           4.8894   13.0225    7.8797 N.3     1  UNL1       -0.2731
      2 H           4.5591   13.1521    6.9213 H       1  UNL1        0.1366
      3 H           5.8023   12.5648    7.8196 H       1  UNL1        0.1366
      4 N           3.9859   12.0676    8.5106 N.3     1  UNL1       -0.2731
      5 H           4.2555   12.0443    9.4963 H       1  UNL1        0.1366
      6 H           3.0691   12.5175    8.4997 H       1  UNL1        0.1366
@<TRIPOS>BOND
     1     2     1    1
     2     3     1    1
     3     1     4    1
     4     6     4    1
     5     4     5    1
