@<TRIPOS>MOLECULE
1
 11 11 0 0 0
SMALL
GASTEIGER

@<TRIPOS>ATOM
      1 N          -0.1603    3.2636    1.5339 N.ar    1  UNL1       -0.2633
      2 C          -1.1101    4.1235    1.1696 C.ar    1  UNL1        0.0276
      3 H          -0.8168    5.1635    1.1059 H       1  UNL1        0.0829
      4 C          -2.4093    3.7399    0.8750 C.ar    1  UNL1       -0.0436
      5 H          -3.1377    4.4799    0.5831 H       1  UNL1        0.0633
      6 C          -2.7463    2.3993    0.9613 C.ar    1  UNL1       -0.0589
      7 H          -3.7493    2.0645    0.7418 H       1  UNL1        0.0618
      8 C          -1.7612    1.4973    1.3318 C.ar    1  UNL1       -0.0436
      9 H          -1.9746    0.4424    1.4077 H       1  UNL1        0.0633
     10 C          -0.4891    1.9723    1.6049 C.ar    1  UNL1        0.0276
     11 H           0.3098    1.2951    1.8846 H       1  UNL1        0.0829
@<TRIPOS>BOND
     1     5     4    1
     2     7     6    1
     3     4     6   ar
     4     4     2   ar
     5     6     8   ar
     6     3     2    1
     7     2     1   ar
     8     8     9    1
     9     8    10   ar
    10     1    10   ar
    11    10    11    1
