@<TRIPOS>MOLECULE
1
 12 12 0 0 0
SMALL
GASTEIGER

@<TRIPOS>ATOM
      1 N           2.7054    2.2168    1.0182 N.pl3   1  UNL1       -0.2543
      2 C           2.3593    2.1688   -0.4150 C.3     1  UNL1        0.0492
      3 H           1.9688    1.1500   -0.6300 H       1  UNL1        0.0525
      4 H           1.5562    2.8808   -0.6384 H       1  UNL1        0.0525
      5 C           3.5713    2.4173   -1.2686 C.2     1  UNL1       -0.0652
      6 H           3.4949    3.0662   -2.1266 H       1  UNL1        0.0588
      7 C           4.6959    1.7806   -0.9162 C.2     1  UNL1       -0.0629
      8 H           5.6040    1.8523   -1.4984 H       1  UNL1        0.0615
      9 C           4.7280    1.0936    0.3413 C.2     1  UNL1       -0.0467
     10 H           5.5665    0.4675    0.6032 H       1  UNL1        0.0630
     11 C           3.8010    1.4570    1.2759 C.2     1  UNL1        0.0117
     12 H           3.9438    1.1777    2.3180 H       1  UNL1        0.0797
@<TRIPOS>BOND
     1     6     5    1
     2     8     7    1
     3     5     7    2
     4     5     2    1
     5     7     9    1
     6     4     2    1
     7     3     2    1
     8     2     1    1
     9     9    10    1
    10     9    11    2
    11     1    11    1
    12    11    12    1
