@<TRIPOS>MOLECULE
1
 11 11 0 0 0
SMALL
GASTEIGER

@<TRIPOS>ATOM
      1 N           4.5397    4.8525    2.0519 N.pl3   1  UNL1       -0.2487
      2 C           4.6799    6.1784    2.1478 C.3     1  UNL1        0.0840
      3 H           3.7631    6.7499    2.2327 H       1  UNL1        0.0584
      4 C           5.9092    6.8153    2.1400 C.2     1  UNL1       -0.0600
      5 H           5.9596    7.8899    2.2212 H       1  UNL1        0.0592
      6 C           7.0607    6.0527    2.0266 C.2     1  UNL1       -0.0626
      7 H           8.0361    6.5161    2.0198 H       1  UNL1        0.0615
      8 C           6.9241    4.6784    1.9180 C.2     1  UNL1       -0.0466
      9 H           7.7876    4.0389    1.8209 H       1  UNL1        0.0630
     10 C           5.6537    4.1266    1.9341 C.2     1  UNL1        0.0121
     11 H           5.5205    3.0562    1.8314 H       1  UNL1        0.0797
@<TRIPOS>BOND
     1     9     8    1
     2    11    10    1
     3     8    10    2
     4     8     6    1
     5    10     1    1
     6     7     6    1
     7     6     4    2
     8     1     2    1
     9     4     2    1
    10     4     5    1
    11     2     3    1
