@<TRIPOS>MOLECULE
1
 11 11 0 0 0
SMALL
GASTEIGER

@<TRIPOS>ATOM
      1 N          23.1131    7.1328   13.3967 N.pl3   1  UNL1       -0.2487
      2 C          22.3859    7.8907   14.2235 C.3     1  UNL1        0.0840
      3 C          22.8424    8.2984   15.4652 C.2     1  UNL1       -0.0600
      4 C          24.1044    7.9032   15.8852 C.2     1  UNL1       -0.0626
      5 C          24.8569    7.1097   15.0310 C.2     1  UNL1       -0.0466
      6 C          24.3285    6.7534   13.8015 C.2     1  UNL1        0.0121
      7 H          21.4001    8.1663   13.8640 H       1  UNL1        0.0584
      8 H          22.2195    8.9159   16.0933 H       1  UNL1        0.0592
      9 H          24.4883    8.2027   16.8485 H       1  UNL1        0.0615
     10 H          25.8426    6.7735   15.3138 H       1  UNL1        0.0630
     11 H          24.8845    6.1417   13.0964 H       1  UNL1        0.0797
@<TRIPOS>BOND
     1    11     6    1
     2     1     6    1
     3     1     2    1
     4     6     5    2
     5     7     2    1
     6     2     3    1
     7     5    10    1
     8     5     4    1
     9     3     4    2
    10     3     8    1
    11     4     9    1
