@<TRIPOS>MOLECULE
1
 9 8 0 0 0
SMALL
GASTEIGER

@<TRIPOS>ATOM
      1 N           2.3689    4.2300    6.6278 N.3     1  UNL1       -0.2469
      2 C           3.2239    3.4565    7.5042 C.3     1  UNL1        0.0021
      3 H           3.8486    2.7573    6.9389 H       1  UNL1        0.0405
      4 H           2.6260    2.8679    8.2267 H       1  UNL1        0.0405
      5 H           3.8929    4.0991    8.1100 H       1  UNL1        0.0405
      6 C           1.5544    5.1189    7.4406 C.3     1  UNL1        0.0021
      7 H           0.8785    4.5460    8.1059 H       1  UNL1        0.0405
      8 H           0.9458    5.7742    6.8026 H       1  UNL1        0.0405
      9 H           2.1728    5.7591    8.0988 H       1  UNL1        0.0405
@<TRIPOS>BOND
     1     1     6    1
     2     1     2    1
     3     8     6    1
     4     3     2    1
     5     6     9    1
     6     6     7    1
     7     2     5    1
     8     2     4    1
