@<TRIPOS>MOLECULE
1
 9 8 0 0 0
SMALL
GASTEIGER

@<TRIPOS>ATOM
      1 N           8.0551    2.3469   -4.2417 N.3     1  UNL1       -0.2469
      2 C           6.6909    1.9939   -4.5825 C.3     1  UNL1        0.0021
      3 H           6.4928    0.9298   -4.3528 H       1  UNL1        0.0405
      4 H           6.5034    2.1390   -5.6512 H       1  UNL1        0.0405
      5 H           5.9430    2.5818   -4.0086 H       1  UNL1        0.0405
      6 C           8.3179    1.9176   -2.8811 C.3     1  UNL1        0.0021
      7 H           8.0634    0.8485   -2.7520 H       1  UNL1        0.0405
      8 H           7.7087    2.4716   -2.1358 H       1  UNL1        0.0405
      9 H           9.3753    2.0399   -2.6298 H       1  UNL1        0.0405
@<TRIPOS>BOND
     1     4     2    1
     2     2     3    1
     3     2     1    1
     4     2     5    1
     5     1     6    1
     6     6     7    1
     7     6     9    1
     8     6     8    1
