@<TRIPOS>MOLECULE
1
 9 8 0 0 0
SMALL
GASTEIGER

@<TRIPOS>ATOM
      1 N          11.0918    2.8794   -4.7703 N.3     1  UNL1       -0.2469
      2 C          11.2601    1.4405   -4.7054 C.3     1  UNL1        0.0021
      3 H          10.2856    0.9460   -4.6470 H       1  UNL1        0.0405
      4 H          11.8538    1.1541   -3.8165 H       1  UNL1        0.0405
      5 H          11.7994    1.0494   -5.5883 H       1  UNL1        0.0405
      6 C          12.3920    3.5036   -4.8999 C.3     1  UNL1        0.0021
      7 H          12.9346    3.1372   -5.7927 H       1  UNL1        0.0405
      8 H          13.0260    3.2691   -4.0248 H       1  UNL1        0.0405
      9 H          12.3014    4.5918   -4.9624 H       1  UNL1        0.0405
@<TRIPOS>BOND
     1     7     6    1
     2     5     2    1
     3     9     6    1
     4     6     1    1
     5     6     8    1
     6     1     2    1
     7     2     3    1
     8     2     4    1
