@<TRIPOS>MOLECULE
1
 9 8 0 0 0
SMALL
GASTEIGER

@<TRIPOS>ATOM
      1 N           0.3447    4.3182    4.0367 N.3     1  UNL1       -0.2469
      2 C          -0.7847    4.3171    4.9421 C.3     1  UNL1        0.0021
      3 H          -0.4891    3.9043    5.9111 H       1  UNL1        0.0405
      4 H          -1.6076    3.6936    4.5414 H       1  UNL1        0.0405
      5 H          -1.2113    5.3294    5.1044 H       1  UNL1        0.0405
      6 C          -0.0737    4.7673    2.7254 C.3     1  UNL1        0.0021
      7 H          -0.7911    4.0547    2.2687 H       1  UNL1        0.0405
      8 H           0.7989    4.8542    2.0670 H       1  UNL1        0.0405
      9 H          -0.5976    5.7442    2.7561 H       1  UNL1        0.0405
@<TRIPOS>BOND
     1     8     6    1
     2     7     6    1
     3     6     9    1
     4     6     1    1
     5     1     2    1
     6     4     2    1
     7     2     5    1
     8     2     3    1
