@<TRIPOS>MOLECULE
1
 10 9 0 0 0
SMALL
GASTEIGER

@<TRIPOS>ATOM
      1 N           2.4943    2.2807    4.0368 N.3     1  UNL1       -0.3220
      2 H           3.4582    1.9501    4.1473 H       1  UNL1        0.1213
      3 C           2.1038    1.9925    2.6532 C.3     1  UNL1       -0.0161
      4 H           1.0845    2.3473    2.4983 H       1  UNL1        0.0388
      5 H           2.1378    0.9136    2.4413 H       1  UNL1        0.0388
      6 H           2.7748    2.5025    1.9620 H       1  UNL1        0.0388
      7 C           1.6413    1.5161    4.9515 C.3     1  UNL1       -0.0161
      8 H           1.7073    0.4341    4.7637 H       1  UNL1        0.0388
      9 H           0.6089    1.8365    4.8019 H       1  UNL1        0.0388
     10 H           1.9220    1.7186    5.9839 H       1  UNL1        0.0388
@<TRIPOS>BOND
     1     6     3    1
     2     5     3    1
     3     4     3    1
     4     3     1    1
     5     1     2    1
     6     1     7    1
     7     8     7    1
     8     9     7    1
     9     7    10    1
