@<TRIPOS>MOLECULE
1
 34 34 0 0 0
SMALL
GASTEIGER

@<TRIPOS>ATOM
      1 N          -1.5845    8.9877   10.9846 N.pl3   1  UNL1       -0.2501
      2 C          -1.8395    9.0721    9.6117 C.ar    1  UNL1        0.0483
      3 C          -0.8040    9.3643    8.7151 C.ar    1  UNL1       -0.0362
      4 H           0.2073    9.4631    9.0929 H       1  UNL1        0.0639
      5 C          -1.0391    9.4838    7.3544 C.ar    1  UNL1       -0.0484
      6 C           0.0951    9.7241    6.4032 C.3     1  UNL1       -0.0396
      7 H          -0.2014   10.4059    5.6083 H       1  UNL1        0.0278
      8 H           0.3921    8.7820    5.9402 H       1  UNL1        0.0278
      9 H           0.9580   10.1329    6.9233 H       1  UNL1        0.0278
     10 C          -2.3341    9.3338    6.8752 C.ar    1  UNL1       -0.0558
     11 H          -2.5234    9.4316    5.8155 H       1  UNL1        0.0623
     12 C          -3.3843    9.0498    7.7380 C.ar    1  UNL1       -0.0484
     13 C          -4.7876    8.9287    7.2223 C.3     1  UNL1       -0.0396
     14 H          -5.3359    8.1623    7.7663 H       1  UNL1        0.0278
     15 H          -4.7927    8.6821    6.1632 H       1  UNL1        0.0278
     16 H          -5.3150    9.8747    7.3537 H       1  UNL1        0.0278
     17 C          -3.1297    8.9065    9.0920 C.ar    1  UNL1       -0.0362
     18 H          -3.9520    8.6898    9.7609 H       1  UNL1        0.0639
     19 C          -1.9925    7.7264   11.5862 C.3     1  UNL1        0.0363
     20 H          -2.9300    7.3652   11.1423 H       1  UNL1        0.0487
     21 H          -2.1655    7.9041   12.6538 H       1  UNL1        0.0487
     22 C          -0.9469    6.5869   11.4683 C.3     1  UNL1       -0.0203
     23 C           0.4389    7.1198   11.8290 C.3     1  UNL1       -0.0586
     24 H           0.7991    7.7787   11.0414 H       1  UNL1        0.0235
     25 H           1.1455    6.2997   11.9421 H       1  UNL1        0.0235
     26 H           0.3921    7.6814   12.7644 H       1  UNL1        0.0235
     27 C          -1.3459    5.4907   12.4597 C.3     1  UNL1       -0.0586
     28 H          -1.3055    5.8696   13.4782 H       1  UNL1        0.0235
     29 H          -0.6708    4.6414   12.3785 H       1  UNL1        0.0235
     30 H          -2.3576    5.1433   12.2614 H       1  UNL1        0.0235
     31 C          -0.9283    6.0064   10.0521 C.3     1  UNL1       -0.0586
     32 H          -1.9019    5.5939    9.7937 H       1  UNL1        0.0235
     33 H          -0.1900    5.2097    9.9813 H       1  UNL1        0.0235
     34 H          -0.6792    6.7714    9.3207 H       1  UNL1        0.0235
@<TRIPOS>BOND
     1     7     6    1
     2    11    10    1
     3     8     6    1
     4    15    13    1
     5     6     9    1
     6     6     5    1
     7    10     5   ar
     8    10    12   ar
     9    13    16    1
    10    13    12    1
    11    13    14    1
    12     5     3   ar
    13    12    17   ar
    14     3     4    1
    15     3     2   ar
    16    17     2   ar
    17    17    18    1
    18    34    31    1
    19     2     1    1
    20    32    31    1
    21    33    31    1
    22    31    22    1
    23     1    19    1
    24    24    23    1
    25    20    19    1
    26    22    19    1
    27    22    23    1
    28    22    27    1
    29    19    21    1
    30    23    25    1
    31    23    26    1
    32    30    27    1
    33    29    27    1
    34    27    28    1
