@<TRIPOS>MOLECULE
1
 34 34 0 0 0
SMALL
GASTEIGER

@<TRIPOS>ATOM
      1 N          -2.7393   11.9627   11.8129 N.pl3   1  UNL1       -0.2501
      2 C          -2.6308   12.9424   10.8395 C.ar    1  UNL1        0.0483
      3 C          -2.8106   14.3122   11.0950 C.ar    1  UNL1       -0.0362
      4 H          -3.0909   14.6461   12.0852 H       1  UNL1        0.0639
      5 C          -2.5869   15.2642   10.1176 C.ar    1  UNL1       -0.0484
      6 C          -2.7790   16.7218   10.4183 C.3     1  UNL1       -0.0396
      7 H          -3.7246   17.0677    9.9994 H       1  UNL1        0.0278
      8 H          -1.9820   17.3155    9.9742 H       1  UNL1        0.0278
      9 H          -2.7957   16.9017   11.4908 H       1  UNL1        0.0278
     10 C          -2.1841   14.8651    8.8474 C.ar    1  UNL1       -0.0558
     11 H          -2.0087   15.6111    8.0849 H       1  UNL1        0.0623
     12 C          -2.0164   13.5206    8.5529 C.ar    1  UNL1       -0.0484
     13 C          -1.6096   13.0665    7.1823 C.3     1  UNL1       -0.0396
     14 H          -0.6965   12.4748    7.2325 H       1  UNL1        0.0278
     15 H          -1.4446   13.9154    6.5222 H       1  UNL1        0.0278
     16 H          -2.3851   12.4336    6.7509 H       1  UNL1        0.0278
     17 C          -2.2427   12.5778    9.5435 C.ar    1  UNL1       -0.0362
     18 H          -2.1568   11.5289    9.2841 H       1  UNL1        0.0639
     19 C          -3.8134   12.0925   12.7757 C.3     1  UNL1        0.0363
     20 H          -4.0802   13.1442   12.9294 H       1  UNL1        0.0487
     21 H          -3.4694   11.6818   13.7356 H       1  UNL1        0.0487
     22 C          -5.1046   11.3324   12.3731 C.3     1  UNL1       -0.0203
     23 C          -6.2326   11.7744   13.3087 C.3     1  UNL1       -0.0586
     24 H          -7.1348   11.2002   13.1097 H       1  UNL1        0.0235
     25 H          -6.4615   12.8289   13.1684 H       1  UNL1        0.0235
     26 H          -5.9481   11.6180   14.3469 H       1  UNL1        0.0235
     27 C          -4.8697    9.8306   12.5274 C.3     1  UNL1       -0.0586
     28 H          -5.7086    9.2654   12.1254 H       1  UNL1        0.0235
     29 H          -4.7477    9.5703   13.5769 H       1  UNL1        0.0235
     30 H          -3.9571    9.5482   12.0026 H       1  UNL1        0.0235
     31 C          -5.4817   11.6525   10.9251 C.3     1  UNL1       -0.0586
     32 H          -4.7278   11.2688   10.2400 H       1  UNL1        0.0235
     33 H          -5.5651   12.7276   10.7754 H       1  UNL1        0.0235
     34 H          -6.4374   11.1952   10.6753 H       1  UNL1        0.0235
@<TRIPOS>BOND
     1    15    13    1
     2    16    13    1
     3    13    14    1
     4    13    12    1
     5    11    10    1
     6    12    10   ar
     7    12    17   ar
     8    10     5   ar
     9    18    17    1
    10    17     2   ar
    11     8     6    1
    12     7     6    1
    13     5     6    1
    14     5     3   ar
    15    32    31    1
    16     6     9    1
    17    34    31    1
    18    33    31    1
    19     2     3   ar
    20     2     1    1
    21    31    22    1
    22     3     4    1
    23     1    19    1
    24    30    27    1
    25    28    27    1
    26    22    27    1
    27    22    19    1
    28    22    23    1
    29    27    29    1
    30    19    20    1
    31    19    21    1
    32    24    23    1
    33    25    23    1
    34    23    26    1
