@<TRIPOS>MOLECULE
1
 34 34 0 0 0
SMALL
GASTEIGER

@<TRIPOS>ATOM
      1 N           0.3539   12.0174   11.3586 N.pl3   1  UNL1       -0.2501
      2 C           1.2671   11.5888   10.4176 C.ar    1  UNL1        0.0483
      3 C           1.9370   10.3764   10.6531 C.ar    1  UNL1       -0.0362
      4 H           1.7537    9.8644   11.5989 H       1  UNL1        0.0639
      5 C           2.8494    9.8668    9.7438 C.ar    1  UNL1       -0.0484
      6 C           3.5487    8.5660   10.0068 C.3     1  UNL1       -0.0396
      7 H           3.0678    7.7621    9.4475 H       1  UNL1        0.0278
      8 H           3.5152    8.3123   11.0637 H       1  UNL1        0.0278
      9 H           4.5877    8.6179    9.6871 H       1  UNL1        0.0278
     10 C           3.1067   10.5767    8.5765 C.ar    1  UNL1       -0.0558
     11 H           3.8237   10.1915    7.8654 H       1  UNL1        0.0623
     12 C           2.4611   11.7806    8.3153 C.ar    1  UNL1       -0.0484
     13 C           2.7710   12.5485    7.0637 C.3     1  UNL1       -0.0396
     14 H           3.6589   13.1631    7.2181 H       1  UNL1        0.0278
     15 H           1.9479   13.2073    6.7955 H       1  UNL1        0.0278
     16 H           2.9712   11.8756    6.2320 H       1  UNL1        0.0278
     17 C           1.5508   12.2790    9.2309 C.ar    1  UNL1       -0.0362
     18 H           1.0445   13.2106    9.0201 H       1  UNL1        0.0639
     19 C           0.3671   13.4226   11.6969 C.3     1  UNL1        0.0363
     20 H          -0.4894   13.6031   12.3607 H       1  UNL1        0.0487
     21 H           0.2268   14.0556   10.8068 H       1  UNL1        0.0487
     22 C           1.6408   13.8984   12.4513 C.3     1  UNL1       -0.0203
     23 C           1.2531   15.1215   13.2883 C.3     1  UNL1       -0.0586
     24 H           0.5441   14.8445   14.0641 H       1  UNL1        0.0235
     25 H           0.7974   15.8843   12.6593 H       1  UNL1        0.0235
     26 H           2.1329   15.5509   13.7633 H       1  UNL1        0.0235
     27 C           2.1406   12.7809   13.3703 C.3     1  UNL1       -0.0586
     28 H           2.8181   13.1835   14.1208 H       1  UNL1        0.0235
     29 H           2.6785   12.0252   12.8005 H       1  UNL1        0.0235
     30 H           1.2982   12.2977   13.8675 H       1  UNL1        0.0235
     31 C           2.7550   14.3048   11.4829 C.3     1  UNL1       -0.0586
     32 H           3.6176   14.6624   12.0426 H       1  UNL1        0.0235
     33 H           2.4201   15.1049   10.8250 H       1  UNL1        0.0235
     34 H           3.0727   13.4642   10.8712 H       1  UNL1        0.0235
@<TRIPOS>BOND
     1    16    13    1
     2    15    13    1
     3    13    14    1
     4    13    12    1
     5    11    10    1
     6    12    10   ar
     7    12    17   ar
     8    10     5   ar
     9    18    17    1
    10    17     2   ar
    11     7     6    1
    12     9     6    1
    13     5     6    1
    14     5     3   ar
    15     6     8    1
    16     2     3   ar
    17     2     1    1
    18     3     4    1
    19    21    19    1
    20    33    31    1
    21    34    31    1
    22     1    19    1
    23    31    32    1
    24    31    22    1
    25    19    20    1
    26    19    22    1
    27    22    23    1
    28    22    27    1
    29    25    23    1
    30    29    27    1
    31    23    26    1
    32    23    24    1
    33    27    30    1
    34    27    28    1
