@<TRIPOS>MOLECULE
5
 21 20 0 0 0
SMALL
GASTEIGER

@<TRIPOS>ATOM
      1 SI          7.8930   -0.9409   12.8513 Si      1  UNL1        0.0000
      2 H           9.1760   -0.9908   12.0935 H       1  UNL1        0.0000
      3 SI          5.2405   -1.2731   11.3142 Si      1  UNL1        0.0000
      4 H           4.3250   -0.3646   10.5633 H       1  UNL1        0.0000
      5 N           6.6316   -0.3803   11.8085 N.3     1  UNL1        0.0000
      6 C           8.0480    0.2427   14.3454 C.3     1  UNL1        0.0000
      7 H           9.0245    0.1456   14.8082 H       1  UNL1        0.0000
      8 H           7.9463    1.2779   14.0233 H       1  UNL1        0.0000
      9 H           7.3033    0.0447   15.1127 H       1  UNL1        0.0000
     10 C           7.6432   -2.6843   13.5727 C.3     1  UNL1        0.0000
     11 H           8.5408   -3.0102   14.0861 H       1  UNL1        0.0000
     12 H           6.8282   -2.7163   14.2864 H       1  UNL1        0.0000
     13 H           7.4312   -3.4030   12.7913 H       1  UNL1        0.0000
     14 C           4.1952   -1.9739   12.7497 C.3     1  UNL1        0.0000
     15 H           3.2478   -2.3520   12.3796 H       1  UNL1        0.0000
     16 H           4.7056   -2.7973   13.2350 H       1  UNL1        0.0000
     17 H           3.9789   -1.2263   13.5062 H       1  UNL1        0.0000
     18 C           5.6649   -2.7460   10.1723 C.3     1  UNL1        0.0000
     19 H           4.7732   -3.1424    9.6969 H       1  UNL1        0.0000
     20 H           6.3639   -2.4639    9.3912 H       1  UNL1        0.0000
     21 H           6.1172   -3.5530   10.7386 H       1  UNL1        0.0000
@<TRIPOS>BOND
     1    20    18    1
     2    19    18    1
     3    18    21    1
     4    18     3    1
     5     4     3    1
     6     3     5    1
     7     3    14    1
     8     5     1    1
     9     2     1    1
    10    15    14    1
    11    14    16    1
    12    14    17    1
    13    13    10    1
    14     1    10    1
    15     1     6    1
    16    10    11    1
    17    10    12    1
    18     8     6    1
    19     6     7    1
    20     6     9    1
