@<TRIPOS>MOLECULE
2
 38 41 0 0 0
SMALL
GASTEIGER

@<TRIPOS>ATOM
      1 SI          5.1944    9.5691    1.8304 Si      1  UNL1        0.0000
      2 N           6.3568    7.0565    3.2370 N.pl3   1  UNL1        0.0000
      3 N           2.9486   10.0754    0.0751 N.ar    1  UNL1        0.0000
      4 C           6.6986    5.8442    3.6438 C.2     1  UNL1        0.0000
      5 H           5.8688    5.1912    3.8495 H       1  UNL1        0.0000
      6 C           8.0165    5.4235    3.8007 C.2     1  UNL1        0.0000
      7 H           8.2169    4.4235    4.1516 H       1  UNL1        0.0000
      8 C           9.0347    6.3001    3.5234 C.2     1  UNL1        0.0000
      9 H          10.0706    6.0296    3.6606 H       1  UNL1        0.0000
     10 C           8.7099    7.5838    3.0354 C.2     1  UNL1        0.0000
     11 C           9.7005    8.5312    2.7169 C.3     1  UNL1        0.0000
     12 H          10.7372    8.2668    2.8665 H       1  UNL1        0.0000
     13 C           9.3494    9.7591    2.2235 C.2     1  UNL1        0.0000
     14 H          10.1089   10.4892    1.9849 H       1  UNL1        0.0000
     15 C           8.0036   10.0569    1.9975 C.2     1  UNL1        0.0000
     16 H           7.7497   11.0087    1.5560 H       1  UNL1        0.0000
     17 C           6.9903    9.1697    2.3024 C.2     1  UNL1        0.0000
     18 C           7.3385    7.9253    2.8621 C.2     1  UNL1        0.0000
     19 C           1.8022   10.3583   -0.4780 C.ar    1  UNL1        0.0000
     20 H           0.9975   10.6141    0.2005 H       1  UNL1        0.0000
     21 C           1.5775   10.3384   -1.8655 C.ar    1  UNL1        0.0000
     22 H           0.6018   10.5818   -2.2571 H       1  UNL1        0.0000
     23 C           2.6162   10.0031   -2.6913 C.ar    1  UNL1        0.0000
     24 H           2.4922    9.9704   -3.7654 H       1  UNL1        0.0000
     25 C           3.8716    9.6948   -2.1286 C.ar    1  UNL1        0.0000
     26 C           5.0044    9.3414   -2.8880 C.ar    1  UNL1        0.0000
     27 H           4.9212    9.2976   -3.9650 H       1  UNL1        0.0000
     28 C           6.1860    9.0610   -2.2595 C.ar    1  UNL1        0.0000
     29 H           7.0564    8.7900   -2.8399 H       1  UNL1        0.0000
     30 C           6.2858    9.1186   -0.8604 C.ar    1  UNL1        0.0000
     31 H           7.2345    8.8894   -0.3969 H       1  UNL1        0.0000
     32 C           5.2131    9.4537   -0.0736 C.ar    1  UNL1        0.0000
     33 C           3.9892    9.7469   -0.7147 C.ar    1  UNL1        0.0000
     34 C           4.8663   11.4078    2.1991 C.3     1  UNL1        0.0000
     35 H           3.9026   11.6916    1.7948 H       1  UNL1        0.0000
     36 H           5.6118   12.0560    1.7487 H       1  UNL1        0.0000
     37 H           4.8563   11.5847    3.2651 H       1  UNL1        0.0000
     38 H           4.2098    8.5988    2.3329 H       1  UNL1        0.0000
@<TRIPOS>BOND
     1    27    26    1
     2    24    23    1
     3    26    28   ar
     4    26    25   ar
     5    29    28    1
     6    23    25   ar
     7    23    21   ar
     8    28    30   ar
     9    22    21    1
    10    25    33   ar
    11    21    19   ar
    12    30    31    1
    13    30    32   ar
    14    33    32   ar
    15    33     3   ar
    16    19     3   ar
    17    19    20    1
    18    32     1    1
    19    16    15    1
    20    36    34    1
    21    35    34    1
    22     1    34    1
    23     1    17    1
    24     1    38    1
    25    14    13    1
    26    15    13    2
    27    15    17    1
    28    34    37    1
    29    13    11    1
    30    17    18    2
    31    11    12    1
    32    11    10    1
    33    18    10    1
    34    18     2    1
    35    10     8    2
    36     2     4    1
    37     8     9    1
    38     8     6    1
    39     4     6    2
    40     4     5    1
    41     6     7    1
