@<TRIPOS>MOLECULE
3
 27 26 0 0 0
SMALL
GASTEIGER

@<TRIPOS>ATOM
      1 SI          3.5900    5.8134    1.7061 Si      1  UNL1        0.0000
      2 SI          3.2751    5.6331    4.7596 Si      1  UNL1        0.0000
      3 N           3.9282    6.2898    3.3183 N.3     1  UNL1        0.0000
      4 C           5.1577    5.9508    0.6242 C.3     1  UNL1        0.0000
      5 H           5.6307    6.9174    0.7427 H       1  UNL1        0.0000
      6 H           4.9103    5.8326   -0.4258 H       1  UNL1        0.0000
      7 H           5.8884    5.1902    0.8779 H       1  UNL1        0.0000
      8 C           2.1934    6.8115    0.8625 C.3     1  UNL1        0.0000
      9 H           2.4460    7.8615    0.7802 H       1  UNL1        0.0000
     10 H           1.2634    6.7389    1.4169 H       1  UNL1        0.0000
     11 H           2.0051    6.4396   -0.1407 H       1  UNL1        0.0000
     12 C           3.0323    3.9847    1.6113 C.3     1  UNL1        0.0000
     13 H           3.7741    3.3138    2.0280 H       1  UNL1        0.0000
     14 H           2.8647    3.6921    0.5797 H       1  UNL1        0.0000
     15 H           2.1055    3.8298    2.1515 H       1  UNL1        0.0000
     16 C           1.3863    5.8820    4.9338 C.3     1  UNL1        0.0000
     17 H           0.8777    5.5027    4.0537 H       1  UNL1        0.0000
     18 H           1.1203    6.9262    5.0423 H       1  UNL1        0.0000
     19 H           0.9966    5.3459    5.7936 H       1  UNL1        0.0000
     20 C           4.2141    6.4517    6.1982 C.3     1  UNL1        0.0000
     21 H           5.2174    6.0504    6.2817 H       1  UNL1        0.0000
     22 H           3.7184    6.2798    7.1468 H       1  UNL1        0.0000
     23 H           4.2863    7.5219    6.0431 H       1  UNL1        0.0000
     24 C           3.5576    3.7452    4.9931 C.3     1  UNL1        0.0000
     25 H           2.8395    3.1660    4.4254 H       1  UNL1        0.0000
     26 H           3.4446    3.4686    6.0371 H       1  UNL1        0.0000
     27 H           4.5482    3.4319    4.6796 H       1  UNL1        0.0000
@<TRIPOS>BOND
     1     6     4    1
     2    11     8    1
     3    14    12    1
     4     4     5    1
     5     4     7    1
     6     4     1    1
     7     9     8    1
     8     8    10    1
     9     8     1    1
    10    12     1    1
    11    12    13    1
    12    12    15    1
    13     1     3    1
    14     3     2    1
    15    17    16    1
    16    25    24    1
    17    27    24    1
    18     2    16    1
    19     2    24    1
    20     2    20    1
    21    16    18    1
    22    16    19    1
    23    24    26    1
    24    23    20    1
    25    20    21    1
    26    20    22    1
