@<TRIPOS>MOLECULE
3
 27 26 0 0 0
SMALL
GASTEIGER

@<TRIPOS>ATOM
      1 SI          2.8202    9.9748    4.9471 Si      1  UNL1        0.0000
      2 SI          5.7404    9.9242    5.9118 Si      1  UNL1        0.0000
      3 N           4.4609    9.4519    4.8657 N.3     1  UNL1        0.0000
      4 C           1.9219    9.2146    3.4603 C.3     1  UNL1        0.0000
      5 H           2.2460    8.1879    3.3261 H       1  UNL1        0.0000
      6 H           2.1345    9.7525    2.5449 H       1  UNL1        0.0000
      7 H           0.8464    9.2157    3.6033 H       1  UNL1        0.0000
      8 C           1.9390    9.3762    6.5450 C.3     1  UNL1        0.0000
      9 H           2.1250    8.3273    6.7441 H       1  UNL1        0.0000
     10 H           0.8641    9.5093    6.4609 H       1  UNL1        0.0000
     11 H           2.2652    9.9382    7.4134 H       1  UNL1        0.0000
     12 C           2.6340   11.8814    4.9744 C.3     1  UNL1        0.0000
     13 H           3.4141   12.3422    5.5712 H       1  UNL1        0.0000
     14 H           1.6808   12.1609    5.4117 H       1  UNL1        0.0000
     15 H           2.6763   12.3144    3.9819 H       1  UNL1        0.0000
     16 C           5.1683   10.2939    7.7007 C.3     1  UNL1        0.0000
     17 H           4.7019    9.4280    8.1586 H       1  UNL1        0.0000
     18 H           4.4492   11.1053    7.7204 H       1  UNL1        0.0000
     19 H           6.0084   10.5850    8.3240 H       1  UNL1        0.0000
     20 C           6.6573   11.4906    5.3022 C.3     1  UNL1        0.0000
     21 H           7.0989   11.3367    4.3235 H       1  UNL1        0.0000
     22 H           7.4597   11.7447    5.9880 H       1  UNL1        0.0000
     23 H           5.9998   12.3509    5.2415 H       1  UNL1        0.0000
     24 C           7.0479    8.5377    5.9943 C.3     1  UNL1        0.0000
     25 H           7.9294    8.7965    5.4199 H       1  UNL1        0.0000
     26 H           6.6543    7.6063    5.6059 H       1  UNL1        0.0000
     27 H           7.3668    8.3589    7.0150 H       1  UNL1        0.0000
@<TRIPOS>BOND
     1     6     4    1
     2     5     4    1
     3     4     7    1
     4     4     1    1
     5    15    12    1
     6    21    20    1
     7     3     1    1
     8     3     2    1
     9     1    12    1
    10     1     8    1
    11    12    14    1
    12    12    13    1
    13    23    20    1
    14    20     2    1
    15    20    22    1
    16    25    24    1
    17    26    24    1
    18     2    24    1
    19     2    16    1
    20    24    27    1
    21    10     8    1
    22     8     9    1
    23     8    11    1
    24    16    18    1
    25    16    17    1
    26    16    19    1
