@<TRIPOS>MOLECULE
3
 48 50 0 0 0
SMALL
GASTEIGER

@<TRIPOS>ATOM
      1 SI          4.8937   12.4459    6.0855 Si      1  UNL1        0.0000
      2 B           0.9671   13.5348    7.2987 B       1  UNL1        0.0000
      3 N           3.2361   12.5614    5.4677 N.3     1  UNL1        0.0000
      4 N           1.3913   12.0582    6.8795 N.pl3   1  UNL1        0.0000
      5 C           2.3773   11.6664    6.0505 C.3     1  UNL1        0.0000
      6 C           2.5869   10.2900    5.8494 C.2     1  UNL1        0.0000
      7 H           3.4166    9.9946    5.2279 H       1  UNL1        0.0000
      8 C           1.7718    9.3519    6.4476 C.2     1  UNL1        0.0000
      9 H           1.9376    8.2979    6.2776 H       1  UNL1        0.0000
     10 C           0.7565    9.7806    7.2840 C.2     1  UNL1        0.0000
     11 H           0.1094    9.0800    7.7842 H       1  UNL1        0.0000
     12 C           0.6078   11.1434    7.4984 C.2     1  UNL1        0.0000
     13 C          -0.3229   11.7759    8.4009 C.ar    1  UNL1        0.0000
     14 C          -1.2782   11.1577    9.2027 C.ar    1  UNL1        0.0000
     15 H          -1.4076   10.0847    9.1905 H       1  UNL1        0.0000
     16 C          -2.0658   11.9444   10.0177 C.ar    1  UNL1        0.0000
     17 H          -2.8138   11.4893   10.6510 H       1  UNL1        0.0000
     18 C          -1.8996   13.3249   10.0242 C.ar    1  UNL1        0.0000
     19 H          -2.5244   13.9288   10.6678 H       1  UNL1        0.0000
     20 C          -0.9511   13.9306    9.2188 C.ar    1  UNL1        0.0000
     21 H          -0.8464   15.0046    9.2402 H       1  UNL1        0.0000
     22 C          -0.1347   13.1680    8.3936 C.ar    1  UNL1        0.0000
     23 C           0.2204   14.1464    5.9676 C.3     1  UNL1        0.0000
     24 H           0.9083   14.0163    5.1116 H       1  UNL1        0.0000
     25 H          -0.6870   13.5684    5.7613 H       1  UNL1        0.0000
     26 C          -0.1705   15.6157    6.0739 C.3     1  UNL1        0.0000
     27 H          -0.8061   15.7721    6.9420 H       1  UNL1        0.0000
     28 H          -0.7198   15.9434    5.1910 H       1  UNL1        0.0000
     29 H           0.7147   16.2375    6.1701 H       1  UNL1        0.0000
     30 C           2.2781   14.3855    7.7755 C.3     1  UNL1        0.0000
     31 H           3.0326   13.7035    8.1720 H       1  UNL1        0.0000
     32 H           2.7279   14.8773    6.9081 H       1  UNL1        0.0000
     33 C           2.0226   15.4427    8.8490 C.3     1  UNL1        0.0000
     34 H           1.2941   16.1735    8.5104 H       1  UNL1        0.0000
     35 H           2.9436   15.9727    9.0918 H       1  UNL1        0.0000
     36 H           1.6473   14.9799    9.7592 H       1  UNL1        0.0000
     37 C           5.5766   14.2043    6.3989 C.3     1  UNL1        0.0000
     38 H           6.5956   14.2816    6.0344 H       1  UNL1        0.0000
     39 H           5.5870   14.4372    7.4590 H       1  UNL1        0.0000
     40 H           4.9886   14.9686    5.8937 H       1  UNL1        0.0000
     41 C           4.9009   11.5084    7.7582 C.3     1  UNL1        0.0000
     42 H           4.1965   11.9237    8.4706 H       1  UNL1        0.0000
     43 H           5.8874   11.5614    8.2059 H       1  UNL1        0.0000
     44 H           4.6547   10.4587    7.6358 H       1  UNL1        0.0000
     45 C           5.9707   11.3334    4.9346 C.3     1  UNL1        0.0000
     46 H           6.1912   10.3784    5.4038 H       1  UNL1        0.0000
     47 H           6.9182   11.8158    4.7201 H       1  UNL1        0.0000
     48 H           5.4892   11.1436    3.9773 H       1  UNL1        0.0000
@<TRIPOS>BOND
     1    48    45    1
     2    47    45    1
     3    45    46    1
     4    45     1    1
     5    24    23    1
     6    28    26    1
     7     7     6    1
     8     3     5    1
     9     3     1    1
    10    25    23    1
    11     6     5    1
    12     6     8    2
    13    40    37    1
    14    23    26    1
    15    23     2    1
    16    38    37    1
    17     5     4    1
    18    26    29    1
    19    26    27    1
    20     1    37    1
    21     1    41    1
    22     9     8    1
    23    37    39    1
    24     8    10    1
    25     4     2    1
    26     4    12    1
    27    32    30    1
    28    10    12    2
    29    10    11    1
    30     2    30    1
    31     2    22    1
    32    12    13    1
    33    44    41    1
    34    41    43    1
    35    41    42    1
    36    30    31    1
    37    30    33    1
    38    22    13   ar
    39    22    20   ar
    40    13    14   ar
    41    34    33    1
    42    33    35    1
    43    33    36    1
    44    15    14    1
    45    14    16   ar
    46    20    21    1
    47    20    18   ar
    48    16    18   ar
    49    16    17    1
    50    18    19    1
