@<TRIPOS>MOLECULE
1
 21 20 0 0 0
SMALL
GASTEIGER

@<TRIPOS>ATOM
      1 N           0.9012    7.2153   13.1786 N.3     1  UNL1        0.0000
      2 SI          1.1734    8.2728   14.5031 Si      1  UNL1        0.0000
      3 H           2.6571    8.5397   14.5652 H       1  UNL1        0.0000
      4 SI         -0.6507    7.0593   12.4633 Si      1  UNL1        0.0000
      5 H          -1.8143    7.1120   13.3832 H       1  UNL1        0.0000
      6 C           0.6604    7.5869   16.2057 C.3     1  UNL1        0.0000
      7 H           0.9977    6.5625   16.3294 H       1  UNL1        0.0000
      8 H          -0.4202    7.5881   16.3109 H       1  UNL1        0.0000
      9 H           1.0714    8.1751   17.0209 H       1  UNL1        0.0000
     10 C           0.3522    9.9729   14.2911 C.3     1  UNL1        0.0000
     11 H           0.6767   10.4561   13.3763 H       1  UNL1        0.0000
     12 H           0.5934   10.6325   15.1173 H       1  UNL1        0.0000
     13 H          -0.7267    9.8750   14.2463 H       1  UNL1        0.0000
     14 C          -0.6898    5.3241   11.6510 C.3     1  UNL1        0.0000
     15 H          -0.4250    4.5592   12.3913 H       1  UNL1        0.0000
     16 H          -0.0062    5.2487   10.8026 H       1  UNL1        0.0000
     17 H          -1.6817    5.0789   11.2817 H       1  UNL1        0.0000
     18 C          -0.9678    8.3566   11.0957 C.3     1  UNL1        0.0000
     19 H          -0.8870    9.3594   11.4983 H       1  UNL1        0.0000
     20 H          -1.9654    8.2462   10.6844 H       1  UNL1        0.0000
     21 H          -0.2647    8.2747   10.2715 H       1  UNL1        0.0000
@<TRIPOS>BOND
     1    21    18    1
     2    20    18    1
     3    16    14    1
     4    18    19    1
     5    18     4    1
     6    17    14    1
     7    14    15    1
     8    14     4    1
     9     4     1    1
    10     4     5    1
    11     1     2    1
    12    11    10    1
    13    13    10    1
    14    10     2    1
    15    10    12    1
    16     2     3    1
    17     2     6    1
    18     6     8    1
    19     6     7    1
    20     6     9    1
