@<TRIPOS>MOLECULE
2
 26 27 0 0 0
SMALL
GASTEIGER

@<TRIPOS>ATOM
      1 SI          9.2014   16.0859   12.9520 Si      1  UNL1        0.0000
      2 N           8.7189   15.8720   11.3295 N.3     1  UNL1        0.0000
      3 C          11.0523   16.4510   13.1485 C.ar    1  UNL1        0.0000
      4 C          11.5869   17.6731   12.7562 C.ar    1  UNL1        0.0000
      5 C          12.9355   17.9464   12.8997 C.ar    1  UNL1        0.0000
      6 C          13.7791   16.9950   13.4486 C.ar    1  UNL1        0.0000
      7 C          13.2634   15.7748   13.8519 C.ar    1  UNL1        0.0000
      8 C          11.9135   15.5106   13.7000 C.ar    1  UNL1        0.0000
      9 C           8.2971   17.5992   13.6710 C.ar    1  UNL1        0.0000
     10 C           8.5834   18.0941   14.9380 C.ar    1  UNL1        0.0000
     11 C           7.9323   19.2085   15.4366 C.ar    1  UNL1        0.0000
     12 C           6.9799   19.8560   14.6669 C.ar    1  UNL1        0.0000
     13 C           6.6829   19.3793   13.4008 C.ar    1  UNL1        0.0000
     14 C           7.3358   18.2615   12.9133 C.ar    1  UNL1        0.0000
     15 H           8.7919   16.7308   10.7921 H       1  UNL1        0.0000
     16 H           8.9091   14.8595   13.7321 H       1  UNL1        0.0000
     17 H          10.9320   18.4256   12.3374 H       1  UNL1        0.0000
     18 H          13.3315   18.9023   12.5864 H       1  UNL1        0.0000
     19 H          14.8331   17.2049   13.5639 H       1  UNL1        0.0000
     20 H          13.9161   15.0290   14.2844 H       1  UNL1        0.0000
     21 H          11.5172   14.5546   14.0110 H       1  UNL1        0.0000
     22 H           9.3328   17.5978   15.5396 H       1  UNL1        0.0000
     23 H           8.1675   19.5765   16.4259 H       1  UNL1        0.0000
     24 H           6.4713   20.7279   15.0535 H       1  UNL1        0.0000
     25 H           5.9405   19.8786   12.7939 H       1  UNL1        0.0000
     26 H           7.0931   17.8884   11.9251 H       1  UNL1        0.0000
@<TRIPOS>BOND
     1    15     2    1
     2     2     1    1
     3    26    14    1
     4    17     4    1
     5    18     5    1
     6     4     5   ar
     7     4     3   ar
     8    25    13    1
     9     5     6   ar
    10    14    13   ar
    11    14     9   ar
    12     1     3    1
    13     1     9    1
    14     1    16    1
    15     3     8   ar
    16    13    12   ar
    17     6    19    1
    18     6     7   ar
    19     9    10   ar
    20     8     7   ar
    21     8    21    1
    22     7    20    1
    23    12    24    1
    24    12    11   ar
    25    10    11   ar
    26    10    22    1
    27    11    23    1
