@<TRIPOS>MOLECULE
8
 31 31 0 0 0
SMALL
GASTEIGER

@<TRIPOS>ATOM
      1 SI          5.9681    4.5719   10.6659 Si      1  UNL1        0.0000
      2 F           1.3049    7.6180   12.4674 F       1  UNL1        0.0000
      3 F           2.7655    7.0946   13.9519 F       1  UNL1        0.0000
      4 F           0.7035    6.5552   14.2382 F       1  UNL1        0.0000
      5 F          -0.2753    1.7740   10.9998 F       1  UNL1        0.0000
      6 F           1.1439    0.7653   12.2590 F       1  UNL1        0.0000
      7 F          -0.4019    1.9731   13.1368 F       1  UNL1        0.0000
      8 N           4.3579    4.0888   10.1329 N.pl3   1  UNL1        0.0000
      9 C           3.2960    4.1518   10.9822 C.ar    1  UNL1        0.0000
     10 C           3.0056    5.3083   11.7275 C.ar    1  UNL1        0.0000
     11 H           3.6290    6.1801   11.6046 H       1  UNL1        0.0000
     12 C           1.9285    5.3480   12.5936 C.ar    1  UNL1        0.0000
     13 C           1.0858    4.2577   12.7617 C.ar    1  UNL1        0.0000
     14 H           0.2485    4.2973   13.4386 H       1  UNL1        0.0000
     15 C           1.3664    3.1134   12.0261 C.ar    1  UNL1        0.0000
     16 C           2.4373    3.0477   11.1520 C.ar    1  UNL1        0.0000
     17 H           2.6378    2.1295   10.6082 H       1  UNL1        0.0000
     18 C           1.6705    6.6379   13.3207 C.3     1  UNL1        0.0000
     19 C           0.4662    1.9125   12.1221 C.3     1  UNL1        0.0000
     20 C           6.5212    6.0486    9.5743 C.3     1  UNL1        0.0000
     21 H           6.3908    5.8358    8.5153 H       1  UNL1        0.0000
     22 H           7.5716    6.2631    9.7400 H       1  UNL1        0.0000
     23 H           5.9652    6.9525    9.8113 H       1  UNL1        0.0000
     24 C           6.0006    5.1250   12.4962 C.3     1  UNL1        0.0000
     25 H           5.3514    4.5119   13.1131 H       1  UNL1        0.0000
     26 H           5.7060    6.1591   12.6329 H       1  UNL1        0.0000
     27 H           7.0080    5.0288   12.8864 H       1  UNL1        0.0000
     28 C           7.0648    3.0010   10.5644 C.3     1  UNL1        0.0000
     29 H           7.9119    3.1540    9.9031 H       1  UNL1        0.0000
     30 H           6.5019    2.1471   10.1847 H       1  UNL1        0.0000
     31 H           7.4570    2.7304   11.5405 H       1  UNL1        0.0000
@<TRIPOS>BOND
     1    21    20    1
     2    20    22    1
     3    20    23    1
     4    20     1    1
     5    29    28    1
     6     8     1    1
     7     8     9    1
     8    30    28    1
     9    28     1    1
    10    28    31    1
    11    17    16    1
    12     1    24    1
    13     9    16   ar
    14     9    10   ar
    15     5    19    1
    16    16    15   ar
    17    11    10    1
    18    10    12   ar
    19    15    19    1
    20    15    13   ar
    21    19     6    1
    22    19     7    1
    23     2    18    1
    24    24    26    1
    25    24    27    1
    26    24    25    1
    27    12    13   ar
    28    12    18    1
    29    13    14    1
    30    18     3    1
    31    18     4    1
