@<TRIPOS>MOLECULE
8
 31 31 0 0 0
SMALL
GASTEIGER

@<TRIPOS>ATOM
      1 SI          3.0346    4.0026    5.9974 Si      1  UNL1        0.0000
      2 F          -0.3725    2.0642   10.5022 F       1  UNL1        0.0000
      3 F          -0.6375    4.0485    9.7248 F       1  UNL1        0.0000
      4 F          -0.2131    3.7611   11.8136 F       1  UNL1        0.0000
      5 F           5.7379    2.6950   11.9990 F       1  UNL1        0.0000
      6 F           4.4231    3.8652   13.2352 F       1  UNL1        0.0000
      7 F           5.6723    4.8326   11.7777 F       1  UNL1        0.0000
      8 N           3.7246    3.0438    7.3170 N.pl3   1  UNL1        0.0000
      9 C           3.3119    3.2367    8.6046 C.ar    1  UNL1        0.0000
     10 C           1.9539    3.2213    8.9620 C.ar    1  UNL1        0.0000
     11 H           1.2132    3.0501    8.1956 H       1  UNL1        0.0000
     12 C           1.5652    3.3914   10.2786 C.ar    1  UNL1        0.0000
     13 C           2.4927    3.5704   11.2964 C.ar    1  UNL1        0.0000
     14 H           2.1807    3.6904   12.3210 H       1  UNL1        0.0000
     15 C           3.8358    3.5929   10.9455 C.ar    1  UNL1        0.0000
     16 C           4.2503    3.4412    9.6331 C.ar    1  UNL1        0.0000
     17 H           5.3062    3.4977    9.3830 H       1  UNL1        0.0000
     18 C           0.0945    3.3258   10.5892 C.3     1  UNL1        0.0000
     19 C           4.9040    3.7543   11.9935 C.3     1  UNL1        0.0000
     20 C           1.9436    2.8101    4.9650 C.3     1  UNL1        0.0000
     21 H           2.3630    1.8038    4.9534 H       1  UNL1        0.0000
     22 H           1.8706    3.1490    3.9372 H       1  UNL1        0.0000
     23 H           0.9312    2.7508    5.3561 H       1  UNL1        0.0000
     24 C           4.5262    4.7758    5.0773 C.3     1  UNL1        0.0000
     25 H           4.6281    4.3693    4.0759 H       1  UNL1        0.0000
     26 H           5.4584    4.5792    5.6088 H       1  UNL1        0.0000
     27 H           4.4168    5.8526    4.9831 H       1  UNL1        0.0000
     28 C           1.9859    5.4424    6.6912 C.3     1  UNL1        0.0000
     29 H           2.4985    5.9468    7.5048 H       1  UNL1        0.0000
     30 H           1.0164    5.1268    7.0589 H       1  UNL1        0.0000
     31 H           1.8085    6.1752    5.9118 H       1  UNL1        0.0000
@<TRIPOS>BOND
     1    22    20    1
     2    25    24    1
     3    21    20    1
     4    20    23    1
     5    20     1    1
     6    27    24    1
     7    24    26    1
     8    24     1    1
     9    31    28    1
    10     1    28    1
    11     1     8    1
    12    28    30    1
    13    28    29    1
    14     8     9    1
    15    11    10    1
    16     9    10   ar
    17     9    16   ar
    18    10    12   ar
    19    17    16    1
    20    16    15   ar
    21     3    18    1
    22    12    18    1
    23    12    13   ar
    24     2    18    1
    25    18     4    1
    26    15    13   ar
    27    15    19    1
    28    13    14    1
    29     7    19    1
    30    19     5    1
    31    19     6    1
