@<TRIPOS>MOLECULE
1
 11 11 0 0 0
SMALL
GASTEIGER

@<TRIPOS>ATOM
      1 N           7.5349   18.0544    3.8292 N.pl3   1  UNL1       -0.2487
      2 C           7.8153   19.0589    2.9989 C.3     1  UNL1        0.0840
      3 H           7.0318   19.3238    2.2968 H       1  UNL1        0.0584
      4 C           9.0337   19.7233    2.9996 C.2     1  UNL1       -0.0600
      5 H           9.2223   20.5139    2.2915 H       1  UNL1        0.0592
      6 C           9.9860   19.3644    3.9400 C.2     1  UNL1       -0.0626
      7 H          10.9383   19.8712    3.9815 H       1  UNL1        0.0615
      8 C           9.6914   18.3354    4.8223 C.2     1  UNL1       -0.0466
      9 H          10.4033   18.0253    5.5710 H       1  UNL1        0.0630
     10 C           8.4607   17.7050    4.7236 C.2     1  UNL1        0.0121
     11 H           8.1916   16.8665    5.3616 H       1  UNL1        0.0797
@<TRIPOS>BOND
     1     5     4    1
     2     3     2    1
     3     2     4    1
     4     2     1    1
     5     4     6    2
     6     1    10    1
     7     6     7    1
     8     6     8    1
     9    10     8    2
    10    10    11    1
    11     8     9    1
