@<TRIPOS>MOLECULE
1
 13 13 0 0 0
SMALL
GASTEIGER

@<TRIPOS>ATOM
      1 N          -0.5311    2.8752    2.1263 N.pl3   1  UNL1       -0.2453
      2 C          -1.1584    3.5890    1.1693 C.3     1  UNL1        0.0843
      3 C          -0.5376    4.1645    0.0968 C.2     1  UNL1       -0.0600
      4 C           0.8660    4.0187   -0.0232 C.2     1  UNL1       -0.0623
      5 C           1.5441    3.3215    0.9164 C.2     1  UNL1       -0.0434
      6 C           0.8574    2.7222    2.0351 C.2     1  UNL1        0.0263
      7 C           1.5118    2.0288    3.0048 C.3     1  UNL1       -0.0079
      8 H          -2.2347    3.6886    1.2975 H       1  UNL1        0.0584
      9 H          -1.0999    4.7172   -0.6376 H       1  UNL1        0.0592
     10 H           1.3803    4.4668   -0.8617 H       1  UNL1        0.0616
     11 H           2.6148    3.1925    0.8632 H       1  UNL1        0.0633
     12 H           0.9645    1.5190    3.8051 H       1  UNL1        0.0330
     13 H           2.5766    1.8860    2.9637 H       1  UNL1        0.0330
@<TRIPOS>BOND
     1    10     4    1
     2     9     3    1
     3     4     3    2
     4     4     5    1
     5     3     2    1
     6    11     5    1
     7     5     6    2
     8     2     8    1
     9     2     1    1
    10     6     1    1
    11     6     7    1
    12    13     7    1
    13     7    12    1
