@<TRIPOS>MOLECULE
3
 37 36 0 0 0
SMALL
GASTEIGER

@<TRIPOS>ATOM
      1 SI         -2.7410    5.1164    4.7381 Si      1  UNL1        0.0000
      2 O          -1.0703    4.7948    4.7683 O.3     1  UNL1        0.0000
      3 N          -3.1632    3.5463    4.2547 N.3     1  UNL1        0.0000
      4 C           0.0253    5.6981    4.7964 C.3     1  UNL1        0.0000
      5 C           1.2489    4.8914    5.2565 C.3     1  UNL1        0.0000
      6 C          -0.2183    6.8461    5.7765 C.3     1  UNL1        0.0000
      7 C           0.2850    6.2483    3.3909 C.3     1  UNL1        0.0000
      8 C          -3.2940    5.7228    6.4802 C.3     1  UNL1        0.0000
      9 C          -3.1943    6.5276    3.5166 C.3     1  UNL1        0.0000
     10 C          -4.4931    2.9703    4.3210 C.3     1  UNL1        0.0000
     11 C          -4.5998    1.8678    3.2500 C.3     1  UNL1        0.0000
     12 C          -4.7204    2.3249    5.7009 C.3     1  UNL1        0.0000
     13 C          -5.5919    4.0065    4.0542 C.3     1  UNL1        0.0000
     14 H           2.1399    5.5144    5.2435 H       1  UNL1        0.0000
     15 H           1.4046    4.0438    4.5834 H       1  UNL1        0.0000
     16 H           1.0959    4.5242    6.2703 H       1  UNL1        0.0000
     17 H          -1.0343    7.4722    5.4312 H       1  UNL1        0.0000
     18 H           0.6776    7.4559    5.8631 H       1  UNL1        0.0000
     19 H          -0.4711    6.4508    6.7563 H       1  UNL1        0.0000
     20 H           1.1721    6.8766    3.3900 H       1  UNL1        0.0000
     21 H           0.4360    5.4273    2.6946 H       1  UNL1        0.0000
     22 H          -0.5627    6.8342    3.0523 H       1  UNL1        0.0000
     23 H          -3.0777    6.7734    6.6462 H       1  UNL1        0.0000
     24 H          -2.8196    5.1566    7.2765 H       1  UNL1        0.0000
     25 H          -4.3662    5.6013    6.5941 H       1  UNL1        0.0000
     26 H          -4.2668    6.6904    3.5126 H       1  UNL1        0.0000
     27 H          -2.7316    7.4751    3.7767 H       1  UNL1        0.0000
     28 H          -2.8985    6.2799    2.5013 H       1  UNL1        0.0000
     29 H          -4.4379    2.2972    2.2611 H       1  UNL1        0.0000
     30 H          -3.8438    1.0983    3.4438 H       1  UNL1        0.0000
     31 H          -5.5853    1.4047    3.2707 H       1  UNL1        0.0000
     32 H          -3.9379    1.5853    5.8854 H       1  UNL1        0.0000
     33 H          -4.6737    3.0886    6.4726 H       1  UNL1        0.0000
     34 H          -5.6917    1.8362    5.7468 H       1  UNL1        0.0000
     35 H          -5.5868    4.7680    4.8263 H       1  UNL1        0.0000
     36 H          -5.4158    4.4877    3.0970 H       1  UNL1        0.0000
     37 H          -6.5693    3.5294    4.0370 H       1  UNL1        0.0000
@<TRIPOS>BOND
     1    29    11    1
     2    28     9    1
     3    21     7    1
     4    22     7    1
     5    36    13    1
     6    11    31    1
     7    11    30    1
     8    11    10    1
     9    20     7    1
    10     7     4    1
    11    26     9    1
    12     9    27    1
    13     9     1    1
    14    37    13    1
    15    13    10    1
    16    13    35    1
    17     3    10    1
    18     3     1    1
    19    10    12    1
    20    15     5    1
    21     1     2    1
    22     1     8    1
    23     2     4    1
    24     4     5    1
    25     4     6    1
    26    14     5    1
    27     5    16    1
    28    17     6    1
    29    12    34    1
    30    12    32    1
    31    12    33    1
    32     6    18    1
    33     6    19    1
    34     8    25    1
    35     8    23    1
    36     8    24    1
