@<TRIPOS>MOLECULE
3
 37 36 0 0 0
SMALL
GASTEIGER

@<TRIPOS>ATOM
      1 SI         -1.2930   -0.7877    5.0017 Si      1  UNL1        0.0000
      2 O          -1.5853   -0.2324    3.4194 O.3     1  UNL1        0.0000
      3 N          -1.1320    0.7677    5.6631 N.3     1  UNL1        0.0000
      4 C          -1.5080   -0.9387    2.1888 C.3     1  UNL1        0.0000
      5 C          -2.1332   -2.3299    2.2941 C.3     1  UNL1        0.0000
      6 C          -0.0442   -1.0445    1.7493 C.3     1  UNL1        0.0000
      7 C          -2.2860   -0.1216    1.1465 C.3     1  UNL1        0.0000
      8 C          -2.8192   -1.8174    5.5589 C.3     1  UNL1        0.0000
      9 C           0.2217   -1.9673    5.1117 C.3     1  UNL1        0.0000
     10 C          -0.6700    1.0442    7.0144 C.3     1  UNL1        0.0000
     11 C           0.8695    1.1222    7.0338 C.3     1  UNL1        0.0000
     12 C          -1.1237   -0.0177    8.0237 C.3     1  UNL1        0.0000
     13 C          -1.2328    2.4019    7.4749 C.3     1  UNL1        0.0000
     14 H          -3.1492   -2.2512    2.6707 H       1  UNL1        0.0000
     15 H          -1.5584   -2.9577    2.9665 H       1  UNL1        0.0000
     16 H          -2.1570   -2.7986    1.3134 H       1  UNL1        0.0000
     17 H           0.5184   -1.6478    2.4540 H       1  UNL1        0.0000
     18 H           0.0225   -1.5008    0.7649 H       1  UNL1        0.0000
     19 H           0.4001   -0.0511    1.7100 H       1  UNL1        0.0000
     20 H          -3.3461   -0.1112    1.3892 H       1  UNL1        0.0000
     21 H          -1.9129    0.9030    1.1298 H       1  UNL1        0.0000
     22 H          -2.1595   -0.5567    0.1582 H       1  UNL1        0.0000
     23 H          -2.8558   -2.7963    5.0921 H       1  UNL1        0.0000
     24 H          -2.8011   -1.9777    6.6308 H       1  UNL1        0.0000
     25 H          -3.7479   -1.3047    5.3238 H       1  UNL1        0.0000
     26 H           0.3929   -2.2507    6.1456 H       1  UNL1        0.0000
     27 H           0.0841   -2.8888    4.5538 H       1  UNL1        0.0000
     28 H           1.1308   -1.4934    4.7522 H       1  UNL1        0.0000
     29 H           1.2332    1.3615    8.0311 H       1  UNL1        0.0000
     30 H           1.2136    1.8909    6.3398 H       1  UNL1        0.0000
     31 H           1.2875    0.1673    6.7285 H       1  UNL1        0.0000
     32 H          -2.2046   -0.1151    7.9922 H       1  UNL1        0.0000
     33 H          -0.8240    0.2645    9.0305 H       1  UNL1        0.0000
     34 H          -0.6837   -0.9796    7.7840 H       1  UNL1        0.0000
     35 H          -0.8037    2.6862    8.4350 H       1  UNL1        0.0000
     36 H          -2.3134    2.3380    7.5824 H       1  UNL1        0.0000
     37 H          -0.9985    3.1762    6.7373 H       1  UNL1        0.0000
@<TRIPOS>BOND
     1    22     7    1
     2    18     6    1
     3    21     7    1
     4     7    20    1
     5     7     4    1
     6    16     5    1
     7    19     6    1
     8     6     4    1
     9     6    17    1
    10     4     5    1
    11     4     2    1
    12     5    14    1
    13     5    15    1
    14     2     1    1
    15    27     9    1
    16    28     9    1
    17     1     9    1
    18     1     8    1
    19     1     3    1
    20    23     8    1
    21     9    26    1
    22    25     8    1
    23     8    24    1
    24     3    10    1
    25    30    11    1
    26    31    11    1
    27    37    13    1
    28    10    11    1
    29    10    13    1
    30    10    12    1
    31    11    29    1
    32    13    36    1
    33    13    35    1
    34    34    12    1
    35    32    12    1
    36    12    33    1
