@<TRIPOS>MOLECULE
3
 27 26 0 0 0
SMALL
GASTEIGER

@<TRIPOS>ATOM
      1 SI          7.0058    1.2304   15.8197 Si      1  UNL1        0.0000
      2 SI          5.3154    3.6271   14.8793 Si      1  UNL1        0.0000
      3 N           6.8073    2.8094   15.1436 N.3     1  UNL1        0.0000
      4 C           8.5274    1.1418   16.9839 C.3     1  UNL1        0.0000
      5 C           7.2225   -0.1299   14.4822 C.3     1  UNL1        0.0000
      6 C           5.5221    0.6756   16.9011 C.3     1  UNL1        0.0000
      7 C           4.4181    4.0308   16.5298 C.3     1  UNL1        0.0000
      8 C           4.1038    2.5995   13.7989 C.3     1  UNL1        0.0000
      9 C           5.5886    5.3060   14.0095 C.3     1  UNL1        0.0000
     10 H           8.7145    0.1129   17.2793 H       1  UNL1        0.0000
     11 H           9.4155    1.5093   16.4781 H       1  UNL1        0.0000
     12 H           8.3799    1.7228   17.8892 H       1  UNL1        0.0000
     13 H           7.2149   -1.1278   14.9136 H       1  UNL1        0.0000
     14 H           6.4329   -0.0777   13.7375 H       1  UNL1        0.0000
     15 H           8.1687    0.0071   13.9633 H       1  UNL1        0.0000
     16 H           5.4038    1.3205   17.7637 H       1  UNL1        0.0000
     17 H           4.5929    0.6874   16.3444 H       1  UNL1        0.0000
     18 H           5.6791   -0.3345   17.2643 H       1  UNL1        0.0000
     19 H           5.0840    4.5312   17.2251 H       1  UNL1        0.0000
     20 H           3.5702    4.6852   16.3527 H       1  UNL1        0.0000
     21 H           4.0468    3.1354   17.0128 H       1  UNL1        0.0000
     22 H           3.2276    3.1749   13.5143 H       1  UNL1        0.0000
     23 H           4.6056    2.2770   12.8913 H       1  UNL1        0.0000
     24 H           3.7640    1.7109   14.3214 H       1  UNL1        0.0000
     25 H           6.6023    5.6612   14.1787 H       1  UNL1        0.0000
     26 H           5.4487    5.2026   12.9383 H       1  UNL1        0.0000
     27 H           4.8951    6.0630   14.3668 H       1  UNL1        0.0000
@<TRIPOS>BOND
     1    23     8    1
     2    26     9    1
     3    22     8    1
     4    14     5    1
     5     8    24    1
     6     8     2    1
     7    15     5    1
     8     9    25    1
     9     9    27    1
    10     9     2    1
    11     5    13    1
    12     5     1    1
    13     2     3    1
    14     2     7    1
    15     3     1    1
    16     1     6    1
    17     1     4    1
    18    17     6    1
    19    20     7    1
    20    11     4    1
    21     7    21    1
    22     7    19    1
    23     6    18    1
    24     6    16    1
    25     4    10    1
    26     4    12    1
