@<TRIPOS>MOLECULE
3
 27 26 0 0 0
SMALL
GASTEIGER

@<TRIPOS>ATOM
      1 SI          9.5530    5.6082   15.5229 Si      1  UNL1        0.0000
      2 SI          9.3268    5.5982   12.4521 Si      1  UNL1        0.0000
      3 N           8.8940    5.0490   14.0337 N.3     1  UNL1        0.0000
      4 C           8.8205    4.6593   17.0116 C.3     1  UNL1        0.0000
      5 C          11.4641    5.4211   15.5855 C.3     1  UNL1        0.0000
      6 C           9.1481    7.4606   15.8370 C.3     1  UNL1        0.0000
      7 C          10.6096    4.4599   11.5886 C.3     1  UNL1        0.0000
      8 C          10.0939    7.3559   12.4436 C.3     1  UNL1        0.0000
      9 C           7.8034    5.7194   11.2932 C.3     1  UNL1        0.0000
     10 H           7.9010    4.1552   16.7245 H       1  UNL1        0.0000
     11 H           9.5171    3.9037   17.3605 H       1  UNL1        0.0000
     12 H           8.6022    5.3228   17.8443 H       1  UNL1        0.0000
     13 H          11.7416    4.4006   15.3376 H       1  UNL1        0.0000
     14 H          11.9479    6.0772   14.8688 H       1  UNL1        0.0000
     15 H          11.8623    5.6503   16.5698 H       1  UNL1        0.0000
     16 H           9.3844    7.7338   16.8608 H       1  UNL1        0.0000
     17 H           9.7167    8.1113   15.1842 H       1  UNL1        0.0000
     18 H           8.0950    7.6650   15.6738 H       1  UNL1        0.0000
     19 H          10.1578    3.4969   11.3607 H       1  UNL1        0.0000
     20 H          10.9731    4.8913   10.6592 H       1  UNL1        0.0000
     21 H          11.4654    4.2730   12.2318 H       1  UNL1        0.0000
     22 H          10.9821    7.4090   13.0617 H       1  UNL1        0.0000
     23 H          10.3741    7.6385   11.4344 H       1  UNL1        0.0000
     24 H           9.3881    8.0927   12.8078 H       1  UNL1        0.0000
     25 H           7.1167    6.5003   11.6049 H       1  UNL1        0.0000
     26 H           8.1218    5.9459   10.2792 H       1  UNL1        0.0000
     27 H           7.2668    4.7754   11.2698 H       1  UNL1        0.0000
@<TRIPOS>BOND
     1    26     9    1
     2    20     7    1
     3    27     9    1
     4     9    25    1
     5     9     2    1
     6    19     7    1
     7    23     8    1
     8     7    21    1
     9     7     2    1
    10     8     2    1
    11     8    24    1
    12     8    22    1
    13     2     3    1
    14     3     1    1
    15    14     5    1
    16    17     6    1
    17    13     5    1
    18     1     5    1
    19     1     6    1
    20     1     4    1
    21     5    15    1
    22    18     6    1
    23     6    16    1
    24    10     4    1
    25     4    11    1
    26     4    12    1
