@<TRIPOS>MOLECULE
3
 27 26 0 0 0
SMALL
GASTEIGER

@<TRIPOS>ATOM
      1 SI         -0.8552    6.1636    4.2540 Si      1  UNL1        0.0000
      2 SI          1.3384    4.2897    5.3272 Si      1  UNL1        0.0000
      3 N           0.3867    4.9566    4.0232 N.3     1  UNL1        0.0000
      4 C          -1.6712    6.5914    2.5756 C.3     1  UNL1        0.0000
      5 C          -0.1558    7.7816    4.9994 C.3     1  UNL1        0.0000
      6 C          -2.2029    5.4792    5.4331 C.3     1  UNL1        0.0000
      7 C           1.4187    5.3839    6.8896 C.3     1  UNL1        0.0000
      8 C           0.5612    2.6073    5.8183 C.3     1  UNL1        0.0000
      9 C           3.1405    4.1057    4.6934 C.3     1  UNL1        0.0000
     10 H          -2.4873    5.9051    2.3553 H       1  UNL1        0.0000
     11 H          -0.9609    6.5537    1.7496 H       1  UNL1        0.0000
     12 H          -2.0930    7.5933    2.6019 H       1  UNL1        0.0000
     13 H           0.8631    7.9751    4.6834 H       1  UNL1        0.0000
     14 H          -0.7629    8.6293    4.6993 H       1  UNL1        0.0000
     15 H          -0.1649    7.7457    6.0820 H       1  UNL1        0.0000
     16 H          -3.0518    6.1542    5.4844 H       1  UNL1        0.0000
     17 H          -1.8193    5.3541    6.4405 H       1  UNL1        0.0000
     18 H          -2.5656    4.5114    5.0974 H       1  UNL1        0.0000
     19 H           1.8668    6.3489    6.6833 H       1  UNL1        0.0000
     20 H           0.4376    5.5563    7.3161 H       1  UNL1        0.0000
     21 H           2.0240    4.8955    7.6458 H       1  UNL1        0.0000
     22 H          -0.1535    2.7256    6.6269 H       1  UNL1        0.0000
     23 H           1.3112    1.8946    6.1465 H       1  UNL1        0.0000
     24 H           0.0333    2.1737    4.9709 H       1  UNL1        0.0000
     25 H           3.5553    3.1451    4.9815 H       1  UNL1        0.0000
     26 H           3.1818    4.1811    3.6097 H       1  UNL1        0.0000
     27 H           3.7830    4.8759    5.1090 H       1  UNL1        0.0000
@<TRIPOS>BOND
     1    11     4    1
     2    10     4    1
     3     4    12    1
     4     4     1    1
     5    26     9    1
     6     3     1    1
     7     3     2    1
     8     1     5    1
     9     1     6    1
    10    13     5    1
    11     9    25    1
    12     9    27    1
    13     9     2    1
    14    14     5    1
    15    24     8    1
    16     5    15    1
    17    18     6    1
    18     2     8    1
    19     2     7    1
    20     6    16    1
    21     6    17    1
    22     8    23    1
    23     8    22    1
    24    19     7    1
    25     7    20    1
    26     7    21    1
