@<TRIPOS>MOLECULE
3
 27 26 0 0 0
SMALL
GASTEIGER

@<TRIPOS>ATOM
      1 SI          1.8246    5.8582    0.5365 Si      1  UNL1        0.0000
      2 SI         -0.4602    4.0790   -0.5307 Si      1  UNL1        0.0000
      3 N           0.4331    4.8450    0.7453 N.3     1  UNL1        0.0000
      4 C           2.1646    6.8971    2.1062 C.3     1  UNL1        0.0000
      5 C           1.6403    7.1427   -0.8691 C.3     1  UNL1        0.0000
      6 C           3.3434    4.7322    0.2094 C.3     1  UNL1        0.0000
      7 C          -2.2990    4.6233   -0.4898 C.3     1  UNL1        0.0000
      8 C           0.1759    4.4827   -2.2847 C.3     1  UNL1        0.0000
      9 C          -0.3506    2.1682   -0.3728 C.3     1  UNL1        0.0000
     10 H           2.1163    6.2915    3.0063 H       1  UNL1        0.0000
     11 H           3.1539    7.3421    2.0522 H       1  UNL1        0.0000
     12 H           1.4491    7.7086    2.2055 H       1  UNL1        0.0000
     13 H           0.6191    7.4981   -0.9612 H       1  UNL1        0.0000
     14 H           2.2723    8.0029   -0.6744 H       1  UNL1        0.0000
     15 H           1.9353    6.7322   -1.8266 H       1  UNL1        0.0000
     16 H           4.2778    5.2704    0.3319 H       1  UNL1        0.0000
     17 H           3.3239    4.3326   -0.7996 H       1  UNL1        0.0000
     18 H           3.3434    3.8870    0.8941 H       1  UNL1        0.0000
     19 H          -2.7998    4.2878    0.4141 H       1  UNL1        0.0000
     20 H          -2.3996    5.7036   -0.5516 H       1  UNL1        0.0000
     21 H          -2.8327    4.1971   -1.3338 H       1  UNL1        0.0000
     22 H          -0.0266    5.5103   -2.5581 H       1  UNL1        0.0000
     23 H           1.2424    4.3143   -2.3746 H       1  UNL1        0.0000
     24 H          -0.3213    3.8487   -3.0106 H       1  UNL1        0.0000
     25 H          -0.4904    1.6882   -1.3366 H       1  UNL1        0.0000
     26 H           0.6212    1.8632    0.0120 H       1  UNL1        0.0000
     27 H          -1.1196    1.7905    0.2955 H       1  UNL1        0.0000
@<TRIPOS>BOND
     1    24     8    1
     2    22     8    1
     3    23     8    1
     4     8     2    1
     5    15     5    1
     6    25     9    1
     7    21     7    1
     8    13     5    1
     9     5    14    1
    10     5     1    1
    11    17     6    1
    12    20     7    1
    13     2     7    1
    14     2     9    1
    15     2     3    1
    16     7    19    1
    17     9    26    1
    18     9    27    1
    19     6    16    1
    20     6     1    1
    21     6    18    1
    22     1     3    1
    23     1     4    1
    24    11     4    1
    25     4    12    1
    26     4    10    1
