@<TRIPOS>MOLECULE
1
 16 15 0 0 0
SMALL
GASTEIGER

@<TRIPOS>ATOM
      1 N          10.9024   12.7691    1.3345 N.3     1  UNL1       -0.3253
      2 H          11.7856   12.5534    0.8589 H       1  UNL1        0.1187
      3 H          10.1615   12.6479    0.6350 H       1  UNL1        0.1187
      4 C          10.9048   14.1757    1.7773 C.3     1  UNL1        0.0080
      5 C          12.1218   14.3919    2.6767 C.3     1  UNL1       -0.0475
      6 H          12.0668   13.7360    3.5427 H       1  UNL1        0.0247
      7 H          12.1601   15.4208    3.0242 H       1  UNL1        0.0247
      8 H          13.0421   14.1759    2.1355 H       1  UNL1        0.0247
      9 C          10.9863   15.0948    0.5520 C.3     1  UNL1       -0.0475
     10 H          11.8984   14.9043   -0.0111 H       1  UNL1        0.0247
     11 H          10.9873   16.1383    0.8557 H       1  UNL1        0.0247
     12 H          10.1338   14.9338   -0.1055 H       1  UNL1        0.0247
     13 C           9.6047   14.4183    2.5433 C.3     1  UNL1       -0.0475
     14 H           8.7462   14.2509    1.8939 H       1  UNL1        0.0247
     15 H           9.5654   15.4370    2.9209 H       1  UNL1        0.0247
     16 H           9.5389   13.7207    3.3793 H       1  UNL1        0.0247
@<TRIPOS>BOND
     1    12     9    1
     2    10     9    1
     3     9    11    1
     4     9     4    1
     5     3     1    1
     6     2     1    1
     7     1     4    1
     8     4    13    1
     9     4     5    1
    10    14    13    1
    11     8     5    1
    12    13    15    1
    13    13    16    1
    14     5     7    1
    15     5     6    1
