@<TRIPOS>MOLECULE
1
 17 17 0 0 0
SMALL
GASTEIGER

@<TRIPOS>ATOM
      1 N           3.2169    1.8518    5.3886 N.pl3   1  UNL1       -0.2482
      2 C           2.9921    1.8800    6.6940 C.3     1  UNL1        0.0869
      3 H           1.9566    1.9585    6.9970 H       1  UNL1        0.0586
      4 C           4.0061    1.8125    7.6427 C.2     1  UNL1       -0.0484
      5 C           5.3110    1.7135    7.1763 C.2     1  UNL1       -0.0568
      6 H           6.1321    1.6551    7.8781 H       1  UNL1        0.0621
      7 C           5.5624    1.6843    5.8107 C.2     1  UNL1       -0.0351
      8 C           4.4665    1.7567    4.9588 C.2     1  UNL1        0.0151
      9 H           4.5971    1.7225    3.8846 H       1  UNL1        0.0800
     10 C           3.6921    1.8652    9.1029 C.3     1  UNL1       -0.0416
     11 H           3.6281    2.9036    9.4293 H       1  UNL1        0.0275
     12 H           4.4675    1.3729    9.6853 H       1  UNL1        0.0275
     13 H           2.7351    1.3914    9.3066 H       1  UNL1        0.0275
     14 C           6.9473    1.5589    5.2603 C.3     1  UNL1       -0.0385
     15 H           7.1041    2.2691    4.4506 H       1  UNL1        0.0278
     16 H           7.0955    0.5576    4.8565 H       1  UNL1        0.0278
     17 H           7.6908    1.7318    6.0344 H       1  UNL1        0.0278
@<TRIPOS>BOND
     1     9     8    1
     2    15    14    1
     3    16    14    1
     4     8     1    1
     5     8     7    2
     6    14     7    1
     7    14    17    1
     8     1     2    1
     9     7     5    1
    10     2     3    1
    11     2     4    1
    12     5     4    2
    13     5     6    1
    14     4    10    1
    15    10    13    1
    16    10    11    1
    17    10    12    1
