@<TRIPOS>MOLECULE
1
 17 17 0 0 0
SMALL
GASTEIGER

@<TRIPOS>ATOM
      1 N           2.5410    3.2406    2.3501 N.pl3   1  UNL1       -0.2482
      2 C           3.3401    4.2010    2.7992 C.3     1  UNL1        0.0869
      3 H           3.2972    4.3926    3.8630 H       1  UNL1        0.0586
      4 C           4.1735    4.9403    1.9704 C.2     1  UNL1       -0.0484
      5 C           4.1461    4.6498    0.6097 C.2     1  UNL1       -0.0568
      6 H           4.7761    5.2064   -0.0703 H       1  UNL1        0.0621
      7 C           3.3090    3.6528    0.1282 C.2     1  UNL1       -0.0351
      8 C           2.5246    2.9694    1.0533 C.2     1  UNL1        0.0151
      9 H           1.8516    2.1803    0.7528 H       1  UNL1        0.0800
     10 C           5.0677    6.0056    2.5189 C.3     1  UNL1       -0.0416
     11 H           4.8890    6.1496    3.5805 H       1  UNL1        0.0275
     12 H           4.8945    6.9477    2.0022 H       1  UNL1        0.0275
     13 H           6.1125    5.7340    2.3723 H       1  UNL1        0.0275
     14 C           3.2252    3.3130   -1.3242 C.3     1  UNL1       -0.0385
     15 H           3.9690    3.8590   -1.8982 H       1  UNL1        0.0278
     16 H           2.2360    3.5615   -1.7050 H       1  UNL1        0.0278
     17 H           3.3753    2.2456   -1.4700 H       1  UNL1        0.0278
@<TRIPOS>BOND
     1    15    14    1
     2    16    14    1
     3    17    14    1
     4    14     7    1
     5     6     5    1
     6     7     5    1
     7     7     8    2
     8     5     4    2
     9     9     8    1
    10     8     1    1
    11     4    10    1
    12     4     2    1
    13    12    10    1
    14     1     2    1
    15    13    10    1
    16    10    11    1
    17     2     3    1
