@<TRIPOS>MOLECULE
1
 10 9 0 0 0
SMALL
GASTEIGER

@<TRIPOS>ATOM
      1 N           5.3822    1.2422    2.8409 N.3     1  UNL1       -0.3220
      2 H           6.3939    1.2815    2.9509 H       1  UNL1        0.1213
      3 C           4.8399    0.6009    4.0304 C.3     1  UNL1       -0.0161
      4 H           5.2285   -0.4199    4.1590 H       1  UNL1        0.0388
      5 H           3.7546    0.5471    3.9465 H       1  UNL1        0.0388
      6 H           5.0938    1.1880    4.9112 H       1  UNL1        0.0388
      7 C           5.0759    0.4659    1.6474 C.3     1  UNL1       -0.0161
      8 H           5.4202   -0.5756    1.7315 H       1  UNL1        0.0388
      9 H           5.5477    0.9227    0.7781 H       1  UNL1        0.0388
     10 H           3.9951    0.4582    1.4963 H       1  UNL1        0.0388
@<TRIPOS>BOND
     1     9     7    1
     2    10     7    1
     3     7     8    1
     4     7     1    1
     5     1     2    1
     6     1     3    1
     7     5     3    1
     8     3     4    1
     9     3     6    1
