@<TRIPOS>MOLECULE
1
 9 8 0 0 0
SMALL
GASTEIGER

@<TRIPOS>ATOM
      1 N           6.1674    4.4800    2.1504 N.3     1  UNL1       -0.2469
      2 C           6.4436    5.8959    2.1195 C.3     1  UNL1        0.0021
      3 H           6.8981    6.1949    1.1632 H       1  UNL1        0.0405
      4 H           7.1497    6.1787    2.9140 H       1  UNL1        0.0405
      5 H           5.5199    6.4437    2.2562 H       1  UNL1        0.0405
      6 C           7.4231    3.7809    1.9943 C.3     1  UNL1        0.0021
      7 H           8.0649    3.8923    2.8843 H       1  UNL1        0.0405
      8 H           7.9856    4.1821    1.1374 H       1  UNL1        0.0405
      9 H           7.2579    2.7189    1.8106 H       1  UNL1        0.0405
@<TRIPOS>BOND
     1     8     6    1
     2     3     2    1
     3     9     6    1
     4     6     1    1
     5     6     7    1
     6     2     1    1
     7     2     5    1
     8     2     4    1
