@<TRIPOS>MOLECULE
3
 57 57 0 0 0
SMALL
GASTEIGER

@<TRIPOS>ATOM
      1 H           5.1514   13.3017    7.5335 H       1  UNL1        0.0290
      2 H           1.4576   15.1544    4.6331 H       1  UNL1        0.0238
      3 N           4.0772   11.2684    5.4153 N.pl3   1  UNL1       -0.2193
      4 C           4.0864   12.5410    5.8248 C.2     1  UNL1        0.0248
      5 C           3.0116   13.4009    5.6649 C.2     1  UNL1       -0.0583
      6 C           1.6700   13.1112    5.2790 C.3     1  UNL1        0.0004
      7 C           1.1592   11.8301    5.2448 C.3     1  UNL1       -0.0223
      8 C           4.9919   10.3386    5.9283 C.ar    1  UNL1        0.0601
      9 C           5.9487    9.7321    5.0953 C.ar    1  UNL1       -0.0216
     10 C           6.8329    8.8139    5.6440 C.ar    1  UNL1       -0.0565
     11 C           6.7707    8.4660    6.9790 C.ar    1  UNL1       -0.0611
     12 C           5.8102    9.0414    7.7881 C.ar    1  UNL1       -0.0565
     13 C           4.9246    9.9856    7.2929 C.ar    1  UNL1       -0.0216
     14 C           3.8749   10.5664    8.2192 C.3     1  UNL1       -0.0197
     15 C           2.7769    9.5288    8.4704 C.3     1  UNL1       -0.0586
     16 C           4.4725   11.0427    9.5456 C.3     1  UNL1       -0.0586
     17 C           6.0719   10.0988    3.6323 C.3     1  UNL1       -0.0197
     18 C           5.9561    8.8636    2.7346 C.3     1  UNL1       -0.0586
     19 C           7.4067   10.8124    3.3888 C.3     1  UNL1       -0.0586
     20 C           5.3295   13.1163    6.4744 C.3     1  UNL1       -0.0249
     21 C           0.8363   14.3430    5.0099 C.3     1  UNL1       -0.0550
     22 C          -0.2533   11.3677    4.9185 C.3     1  UNL1       -0.0338
     23 C          -0.3059    9.8562    5.1840 C.3     1  UNL1       -0.0598
     24 C          -0.5641   11.5670    3.4254 C.3     1  UNL1       -0.0598
     25 C          -1.3166   12.0460    5.7976 C.3     1  UNL1       -0.0598
     26 H           3.2151   14.4417    5.8886 H       1  UNL1        0.0593
     27 H           7.5882    8.3630    5.0183 H       1  UNL1        0.0621
     28 H           7.4643    7.7462    7.3869 H       1  UNL1        0.0618
     29 H           5.7550    8.7534    8.8268 H       1  UNL1        0.0621
     30 H           3.4060   11.4329    7.7418 H       1  UNL1        0.0344
     31 H           2.3111    9.2395    7.5303 H       1  UNL1        0.0235
     32 H           2.0130    9.9380    9.1294 H       1  UNL1        0.0235
     33 H           3.1928    8.6376    8.9353 H       1  UNL1        0.0235
     34 H           4.7745   10.2030   10.1659 H       1  UNL1        0.0235
     35 H           5.3444   11.6705    9.3743 H       1  UNL1        0.0235
     36 H           3.7339   11.6191   10.0998 H       1  UNL1        0.0235
     37 H           5.2375   10.7783    3.3602 H       1  UNL1        0.0344
     38 H           7.5251   11.6589    4.0629 H       1  UNL1        0.0235
     39 H           8.2390   10.1313    3.5538 H       1  UNL1        0.0235
     40 H           7.4565   11.1773    2.3664 H       1  UNL1        0.0235
     41 H           6.1272    9.1424    1.6972 H       1  UNL1        0.0235
     42 H           6.6885    8.1062    3.0040 H       1  UNL1        0.0235
     43 H           4.9578    8.4377    2.8164 H       1  UNL1        0.0235
     44 H           6.1703   12.4304    6.3815 H       1  UNL1        0.0290
     45 H           5.5925   14.0657    6.0115 H       1  UNL1        0.0290
     46 H           0.3853   14.6788    5.9456 H       1  UNL1        0.0238
     47 H           0.0406   14.1645    4.2940 H       1  UNL1        0.0238
     48 H           0.4497    9.3534    4.5741 H       1  UNL1        0.0235
     49 H          -0.1240    9.6419    6.2368 H       1  UNL1        0.0235
     50 H          -1.2848    9.4571    4.9235 H       1  UNL1        0.0235
     51 H           0.1986   11.0444    2.8332 H       1  UNL1        0.0235
     52 H          -0.5745   12.6161    3.1360 H       1  UNL1        0.0235
     53 H          -1.5422   11.1487    3.1911 H       1  UNL1        0.0235
     54 H          -1.4575   13.0906    5.5397 H       1  UNL1        0.0235
     55 H          -1.0318   11.9858    6.8464 H       1  UNL1        0.0235
     56 H          -2.2723   11.5402    5.6748 H       1  UNL1        0.0235
     57 H           1.7393   11.0788    5.8010 H       1  UNL1        0.0317
@<TRIPOS>BOND
     1    41    18    1
     2    40    19    1
     3    18    43    1
     4    18    42    1
     5    18    17    1
     6    51    24    1
     7    52    24    1
     8    53    24    1
     9    37    17    1
    10    19    39    1
    11    19    17    1
    12    19    38    1
    13    24    22    1
    14    17     9    1
    15    47    21    1
    16    48    23    1
    17     2    21    1
    18    22    23    1
    19    22     7    1
    20    22    25    1
    21    50    23    1
    22    21     6    1
    23    21    46    1
    24    27    10    1
    25     9    10   ar
    26     9     8   ar
    27    23    49    1
    28     7     6    1
    29     7    57    1
    30     6     5    1
    31     3     4    1
    32     3     8    1
    33    54    25    1
    34    10    11   ar
    35     5     4    2
    36     5    26    1
    37    56    25    1
    38    25    55    1
    39     4    20    1
    40     8    13   ar
    41    45    20    1
    42    44    20    1
    43    20     1    1
    44    11    28    1
    45    11    12   ar
    46    13    12   ar
    47    13    14    1
    48    31    15    1
    49    30    14    1
    50    12    29    1
    51    14    15    1
    52    14    16    1
    53    15    33    1
    54    15    32    1
    55    35    16    1
    56    16    36    1
    57    16    34    1
