@<TRIPOS>MOLECULE
1
 11 11 0 0 0
SMALL
GASTEIGER

@<TRIPOS>ATOM
      1 N          -1.3197    0.9125    6.2698 N.pl3   1  UNL1       -0.2487
      2 C          -2.6194    0.6483    6.2058 C.3     1  UNL1        0.0840
      3 C          -3.5675    1.3404    6.9415 C.2     1  UNL1       -0.0600
      4 C          -3.1404    2.3563    7.7823 C.2     1  UNL1       -0.0626
      5 C          -1.7835    2.6303    7.8559 C.2     1  UNL1       -0.0466
      6 C          -0.9128    1.8820    7.0807 C.2     1  UNL1        0.0121
      7 H          -2.9080   -0.1564    5.5405 H       1  UNL1        0.0584
      8 H          -4.6129    1.0882    6.8575 H       1  UNL1        0.0592
      9 H          -3.8497    2.9196    8.3704 H       1  UNL1        0.0615
     10 H          -1.4058    3.4074    8.5015 H       1  UNL1        0.0630
     11 H           0.1552    2.0563    7.1102 H       1  UNL1        0.0797
@<TRIPOS>BOND
     1     7     2    1
     2     2     1    1
     3     2     3    1
     4     1     6    1
     5     8     3    1
     6     3     4    2
     7     6    11    1
     8     6     5    2
     9     4     5    1
    10     4     9    1
    11     5    10    1
