@<TRIPOS>MOLECULE
1
 11 11 0 0 0
SMALL
GASTEIGER

@<TRIPOS>ATOM
      1 N          -0.8448    2.6717    3.9948 N.pl3   1  UNL1       -0.2487
      2 C          -0.0114    3.6999    4.1098 C.3     1  UNL1        0.0840
      3 C          -0.4091    5.0145    3.9270 C.2     1  UNL1       -0.0600
      4 C          -1.7337    5.2712    3.6099 C.2     1  UNL1       -0.0626
      5 C          -2.6054    4.2000    3.4933 C.2     1  UNL1       -0.0466
      6 C          -2.1134    2.9205    3.6925 C.2     1  UNL1        0.0121
      7 H           1.0118    3.4465    4.3510 H       1  UNL1        0.0584
      8 H           0.3065    5.8149    4.0257 H       1  UNL1        0.0592
      9 H          -2.0795    6.2823    3.4552 H       1  UNL1        0.0615
     10 H          -3.6442    4.3496    3.2454 H       1  UNL1        0.0630
     11 H          -2.7615    2.0587    3.6044 H       1  UNL1        0.0797
@<TRIPOS>BOND
     1    10     5    1
     2     9     4    1
     3     5     4    1
     4     5     6    2
     5    11     6    1
     6     4     3    2
     7     6     1    1
     8     3     8    1
     9     3     2    1
    10     1     2    1
    11     2     7    1
