@<TRIPOS>MOLECULE
3
 27 26 0 0 0
SMALL
GASTEIGER

@<TRIPOS>ATOM
      1 SI         -0.2519    3.6480    2.0888 Si      1  UNL1        0.0000
      2 SI          1.7776    5.6639    3.1075 Si      1  UNL1        0.0000
      3 N           1.1260    4.0560    3.0792 N.3     1  UNL1        0.0000
      4 C          -1.6500    4.9630    2.2145 C.3     1  UNL1        0.0000
      5 C           0.2313    3.5249    0.2355 C.3     1  UNL1        0.0000
      6 C          -1.0433    1.9961    2.6317 C.3     1  UNL1        0.0000
      7 C           1.1293    6.8882    1.7867 C.3     1  UNL1        0.0000
      8 C           1.4166    6.5110    4.7954 C.3     1  UNL1        0.0000
      9 C           3.6698    5.6370    2.7457 C.3     1  UNL1        0.0000
     10 H          -2.6262    4.4894    2.2377 H       1  UNL1        0.0000
     11 H          -1.5532    5.5648    3.1120 H       1  UNL1        0.0000
     12 H          -1.6379    5.6349    1.3639 H       1  UNL1        0.0000
     13 H           0.5916    4.4755   -0.1436 H       1  UNL1        0.0000
     14 H          -0.6264    3.2393   -0.3655 H       1  UNL1        0.0000
     15 H           1.0103    2.7889    0.0729 H       1  UNL1        0.0000
     16 H          -1.6865    1.6098    1.8461 H       1  UNL1        0.0000
     17 H          -1.6544    2.1239    3.5197 H       1  UNL1        0.0000
     18 H          -0.2835    1.2555    2.8544 H       1  UNL1        0.0000
     19 H           0.0952    7.1604    1.9568 H       1  UNL1        0.0000
     20 H           1.2013    6.4771    0.7860 H       1  UNL1        0.0000
     21 H           1.7155    7.8022    1.8062 H       1  UNL1        0.0000
     22 H           0.6711    7.2895    4.6714 H       1  UNL1        0.0000
     23 H           1.0267    5.8018    5.5193 H       1  UNL1        0.0000
     24 H           2.3011    6.9789    5.2157 H       1  UNL1        0.0000
     25 H           4.1692    6.4616    3.2462 H       1  UNL1        0.0000
     26 H           4.1518    4.7121    3.0457 H       1  UNL1        0.0000
     27 H           3.8452    5.7570    1.6811 H       1  UNL1        0.0000
@<TRIPOS>BOND
     1    14     5    1
     2    13     5    1
     3    15     5    1
     4     5     1    1
     5    20     7    1
     6    12     4    1
     7    27     9    1
     8     7    21    1
     9     7    19    1
    10     7     2    1
    11    16     6    1
    12     1     4    1
    13     1     6    1
    14     1     3    1
    15     4    10    1
    16     4    11    1
    17     6    18    1
    18     6    17    1
    19     9    26    1
    20     9     2    1
    21     9    25    1
    22     3     2    1
    23     2     8    1
    24    22     8    1
    25     8    24    1
    26     8    23    1
