@<TRIPOS>MOLECULE
3
 27 26 0 0 0
SMALL
GASTEIGER

@<TRIPOS>ATOM
      1 SI          2.7686    0.6492    2.1797 Si      1  UNL1        0.0000
      2 SI          1.3189   -0.4488    4.5630 Si      1  UNL1        0.0000
      3 N           1.9750    0.9112    3.7016 N.3     1  UNL1        0.0000
      4 C           3.5913    2.2604    1.5578 C.3     1  UNL1        0.0000
      5 C           1.6477    0.0243    0.7528 C.3     1  UNL1        0.0000
      6 C           4.1745   -0.6535    2.3190 C.3     1  UNL1        0.0000
      7 C          -0.0781    0.0432    5.7703 C.3     1  UNL1        0.0000
      8 C           0.5726   -1.8010    3.4328 C.3     1  UNL1        0.0000
      9 C           2.6839   -1.3697    5.5754 C.3     1  UNL1        0.0000
     10 H           3.8074    2.1768    0.4967 H       1  UNL1        0.0000
     11 H           2.9310    3.1122    1.6969 H       1  UNL1        0.0000
     12 H           4.5378    2.4587    2.0535 H       1  UNL1        0.0000
     13 H           0.6603    0.4709    0.7853 H       1  UNL1        0.0000
     14 H           2.0861    0.2611   -0.2125 H       1  UNL1        0.0000
     15 H           1.5241   -1.0520    0.7931 H       1  UNL1        0.0000
     16 H           4.9853   -0.3379    2.9690 H       1  UNL1        0.0000
     17 H           3.7935   -1.5932    2.7020 H       1  UNL1        0.0000
     18 H           4.6028   -0.8477    1.3411 H       1  UNL1        0.0000
     19 H          -0.7742   -0.7818    5.8830 H       1  UNL1        0.0000
     20 H          -0.6314    0.9038    5.4108 H       1  UNL1        0.0000
     21 H           0.2959    0.2879    6.7586 H       1  UNL1        0.0000
     22 H          -0.1861   -1.4011    2.7695 H       1  UNL1        0.0000
     23 H           1.3344   -2.2712    2.8209 H       1  UNL1        0.0000
     24 H           0.1086   -2.5798    4.0302 H       1  UNL1        0.0000
     25 H           3.6881   -1.0996    5.2632 H       1  UNL1        0.0000
     26 H           2.5859   -2.4417    5.4382 H       1  UNL1        0.0000
     27 H           2.6048   -1.1798    6.6421 H       1  UNL1        0.0000
@<TRIPOS>BOND
     1    14     5    1
     2    10     4    1
     3     5    13    1
     4     5    15    1
     5     5     1    1
     6    18     6    1
     7     4    11    1
     8     4    12    1
     9     4     1    1
    10     1     6    1
    11     1     3    1
    12     6    17    1
    13     6    16    1
    14    22     8    1
    15    23     8    1
    16     8    24    1
    17     8     2    1
    18     3     2    1
    19     2     9    1
    20     2     7    1
    21    25     9    1
    22    20     7    1
    23    26     9    1
    24     9    27    1
    25     7    19    1
    26     7    21    1
