@<TRIPOS>MOLECULE
1
 9 9 0 0 0
SMALL
GASTEIGER

@<TRIPOS>ATOM
      1 N           0.7379    4.4629    3.8427 N.ar    1  UNL1       -0.2633
      2 C          -0.0771    5.4861    3.4622 C.ar    1  UNL1        0.0276
      3 H          -0.2619    5.6738    2.4160 H       1  UNL1        0.0829
      4 C          -0.5670    6.1373    4.5634 C.ar    1  UNL1       -0.0422
      5 H          -1.2319    6.9793    4.5713 H       1  UNL1        0.0633
      6 C          -0.0244    5.4830    5.6910 C.ar    1  UNL1       -0.0422
      7 H          -0.1961    5.7292    6.7216 H       1  UNL1        0.0633
      8 C           0.7637    4.4716    5.2099 C.ar    1  UNL1        0.0276
      9 H           1.3277    3.7240    5.7559 H       1  UNL1        0.0829
@<TRIPOS>BOND
     1     3     2    1
     2     2     1   ar
     3     2     4   ar
     4     1     8   ar
     5     4     5    1
     6     4     6   ar
     7     8     6   ar
     8     8     9    1
     9     6     7    1
