@<TRIPOS>MOLECULE
1
 27 26 0 0 0
SMALL
GASTEIGER

@<TRIPOS>ATOM
      1 N          -5.2005   10.4316   15.6994 N.3     1  UNL1        0.0000
      2 SI         -3.7280   11.0136   16.4086 Si      1  UNL1        0.0000
      3 SI         -5.9426    8.8812   15.8717 Si      1  UNL1        0.0000
      4 C          -7.7449    9.0000   16.5020 C.3     1  UNL1        0.0000
      5 C          -5.0468    7.7168   17.0890 C.3     1  UNL1        0.0000
      6 C          -5.8280    8.1570   14.1044 C.3     1  UNL1        0.0000
      7 C          -3.7245   10.9664   18.3153 C.3     1  UNL1        0.0000
      8 C          -2.2398   10.0513   15.6869 C.3     1  UNL1        0.0000
      9 C          -3.5572   12.8189   15.8015 C.3     1  UNL1        0.0000
     10 H          -7.8125    9.6594   17.3609 H       1  UNL1        0.0000
     11 H          -8.4299    9.3690   15.7484 H       1  UNL1        0.0000
     12 H          -8.0971    8.0209   16.8106 H       1  UNL1        0.0000
     13 H          -3.9875    7.6470   16.8697 H       1  UNL1        0.0000
     14 H          -5.1516    8.0646   18.1107 H       1  UNL1        0.0000
     15 H          -5.4620    6.7152   17.0399 H       1  UNL1        0.0000
     16 H          -4.9897    7.4737   14.0203 H       1  UNL1        0.0000
     17 H          -6.7206    7.6216   13.8022 H       1  UNL1        0.0000
     18 H          -5.6620    8.9718   13.3988 H       1  UNL1        0.0000
     19 H          -3.6272    9.9503   18.6768 H       1  UNL1        0.0000
     20 H          -2.8944   11.5405   18.7119 H       1  UNL1        0.0000
     21 H          -4.6401   11.3776   18.7249 H       1  UNL1        0.0000
     22 H          -2.3397    9.9924   14.6053 H       1  UNL1        0.0000
     23 H          -1.2968   10.5389   15.9087 H       1  UNL1        0.0000
     24 H          -2.1830    9.0384   16.0693 H       1  UNL1        0.0000
     25 H          -3.4228   12.8435   14.7191 H       1  UNL1        0.0000
     26 H          -4.4290   13.4125   16.0490 H       1  UNL1        0.0000
     27 H          -2.6917   13.2997   16.2415 H       1  UNL1        0.0000
@<TRIPOS>BOND
     1    18     6    1
     2    17     6    1
     3    16     6    1
     4     6     3    1
     5    22     8    1
     6    25     9    1
     7     8    23    1
     8     8    24    1
     9     8     2    1
    10     1     3    1
    11     1     2    1
    12    11     4    1
    13     9    26    1
    14     9    27    1
    15     9     2    1
    16     3     4    1
    17     3     5    1
    18     2     7    1
    19     4    12    1
    20     4    10    1
    21    13     5    1
    22    15     5    1
    23     5    14    1
    24     7    19    1
    25     7    20    1
    26     7    21    1
