@<TRIPOS>MOLECULE
1
 9 8 0 0 0
SMALL
GASTEIGER

@<TRIPOS>ATOM
      1 N           0.6406    6.8653    6.3994 N.3     1  UNL1       -0.2469
      2 C          -0.2886    6.3201    7.3747 C.3     1  UNL1        0.0021
      3 H          -1.1377    5.8509    6.8754 H       1  UNL1        0.0405
      4 H          -0.6759    7.1067    8.0436 H       1  UNL1        0.0405
      5 H           0.1961    5.5682    8.0220 H       1  UNL1        0.0405
      6 C           1.5865    7.7345    7.0753 C.3     1  UNL1        0.0021
      7 H           2.2513    7.1649    7.7469 H       1  UNL1        0.0405
      8 H           1.0698    8.4839    7.6986 H       1  UNL1        0.0405
      9 H           2.2037    8.2647    6.3505 H       1  UNL1        0.0405
@<TRIPOS>BOND
     1     9     6    1
     2     1     6    1
     3     1     2    1
     4     3     2    1
     5     6     8    1
     6     6     7    1
     7     2     5    1
     8     2     4    1
