@<TRIPOS>MOLECULE
1
 9 8 0 0 0
SMALL
GASTEIGER

@<TRIPOS>ATOM
      1 N           3.5204    1.6376    6.4213 N.3     1  UNL1       -0.2469
      2 C           4.4669    2.5039    7.0973 C.3     1  UNL1        0.0021
      3 H           5.1988    1.9294    7.6966 H       1  UNL1        0.0405
      4 H           3.9529    3.1881    7.7983 H       1  UNL1        0.0405
      5 H           5.0137    3.1149    6.3744 H       1  UNL1        0.0405
      6 C           2.6120    1.0678    7.3987 C.3     1  UNL1        0.0021
      7 H           2.2326    1.8404    8.0931 H       1  UNL1        0.0405
      8 H           3.1073    0.3020    8.0270 H       1  UNL1        0.0405
      9 H           1.7517    0.6077    6.9046 H       1  UNL1        0.0405
@<TRIPOS>BOND
     1     5     2    1
     2     1     2    1
     3     1     6    1
     4     9     6    1
     5     2     3    1
     6     2     4    1
     7     6     8    1
     8     6     7    1
