@<TRIPOS>MOLECULE
2
 25 25 0 0 0
SMALL
GASTEIGER

@<TRIPOS>ATOM
      1 SI         -1.9326    2.3720    6.0697 Si      1  UNL1        0.0000
      2 N          -0.3359    2.7316    5.4992 N.pl3   1  UNL1        0.0000
      3 C           0.1508    2.2250    4.3146 C.ar    1  UNL1        0.0000
      4 C           1.5412    2.0950    4.1349 C.ar    1  UNL1        0.0000
      5 H           2.2015    2.3689    4.9598 H       1  UNL1        0.0000
      6 C           2.0763    1.5909    2.9662 C.ar    1  UNL1        0.0000
      7 H           3.1495    1.4930    2.8697 H       1  UNL1        0.0000
      8 C           1.2499    1.1996    1.9252 C.ar    1  UNL1        0.0000
      9 H           1.6676    0.8065    1.0109 H       1  UNL1        0.0000
     10 C          -0.1227    1.3157    2.0817 C.ar    1  UNL1        0.0000
     11 H          -0.7812    1.0139    1.2792 H       1  UNL1        0.0000
     12 C          -0.6647    1.8126    3.2483 C.ar    1  UNL1        0.0000
     13 H          -1.7340    1.9022    3.3485 H       1  UNL1        0.0000
     14 C          -2.2949    0.4922    6.0250 C.3     1  UNL1        0.0000
     15 H          -3.3147    0.2819    6.3292 H       1  UNL1        0.0000
     16 H          -1.6322   -0.0498    6.6926 H       1  UNL1        0.0000
     17 H          -2.1553    0.0848    5.0297 H       1  UNL1        0.0000
     18 C          -3.3887    3.3088    5.2390 C.3     1  UNL1        0.0000
     19 H          -4.3125    3.1286    5.7802 H       1  UNL1        0.0000
     20 H          -3.5539    3.0051    4.2101 H       1  UNL1        0.0000
     21 H          -3.2138    4.3814    5.2389 H       1  UNL1        0.0000
     22 C          -1.9167    2.9432    7.8948 C.3     1  UNL1        0.0000
     23 H          -2.8657    2.7145    8.3682 H       1  UNL1        0.0000
     24 H          -1.7735    4.0200    7.9638 H       1  UNL1        0.0000
     25 H          -1.1409    2.4470    8.4739 H       1  UNL1        0.0000
@<TRIPOS>BOND
     1     9     8    1
     2    11    10    1
     3     8    10   ar
     4     8     6   ar
     5    10    12   ar
     6     7     6    1
     7     6     4   ar
     8    12    13    1
     9    12     3   ar
    10     4     3   ar
    11     4     5    1
    12    20    18    1
    13     3     2    1
    14    17    14    1
    15    21    18    1
    16    18    19    1
    17    18     1    1
    18     2     1    1
    19    14     1    1
    20    14    15    1
    21    14    16    1
    22     1    22    1
    23    22    24    1
    24    22    23    1
    25    22    25    1
