@<TRIPOS>MOLECULE
2
 25 25 0 0 0
SMALL
GASTEIGER

@<TRIPOS>ATOM
      1 SI          3.4913    2.3850    7.8095 Si      1  UNL1        0.0000
      2 N           3.0025    3.9141    7.1613 N.pl3   1  UNL1        0.0000
      3 C           3.8627    4.9840    7.0674 C.ar    1  UNL1        0.0000
      4 C           3.3556    6.2877    6.8998 C.ar    1  UNL1        0.0000
      5 H           2.2741    6.4355    6.8586 H       1  UNL1        0.0000
      6 C           4.1882    7.3854    6.8107 C.ar    1  UNL1        0.0000
      7 H           3.7577    8.3723    6.7031 H       1  UNL1        0.0000
      8 C           5.5647    7.2355    6.8658 C.ar    1  UNL1        0.0000
      9 H           6.2154    8.0934    6.7932 H       1  UNL1        0.0000
     10 C           6.0880    5.9611    7.0202 C.ar    1  UNL1        0.0000
     11 H           7.1593    5.8224    7.0628 H       1  UNL1        0.0000
     12 C           5.2616    4.8617    7.1223 C.ar    1  UNL1        0.0000
     13 H           5.6933    3.8815    7.2400 H       1  UNL1        0.0000
     14 C           4.5352    1.2876    6.6201 C.3     1  UNL1        0.0000
     15 H           3.9099    0.8044    5.8744 H       1  UNL1        0.0000
     16 H           5.0447    0.5030    7.1714 H       1  UNL1        0.0000
     17 H           5.2936    1.8563    6.0895 H       1  UNL1        0.0000
     18 C           4.4119    2.5117    9.4850 C.3     1  UNL1        0.0000
     19 H           4.4087    1.5572   10.0019 H       1  UNL1        0.0000
     20 H           3.9377    3.2410   10.1352 H       1  UNL1        0.0000
     21 H           5.4461    2.8133    9.3611 H       1  UNL1        0.0000
     22 C           1.8604    1.4360    8.1410 C.3     1  UNL1        0.0000
     23 H           2.0654    0.3762    8.2537 H       1  UNL1        0.0000
     24 H           1.1417    1.5401    7.3241 H       1  UNL1        0.0000
     25 H           1.3880    1.7677    9.0623 H       1  UNL1        0.0000
@<TRIPOS>BOND
     1    15    14    1
     2    17    14    1
     3    14    16    1
     4    14     1    1
     5     7     6    1
     6     9     8    1
     7     6     8   ar
     8     6     4   ar
     9     5     4    1
    10     8    10   ar
    11     4     3   ar
    12    10    11    1
    13    10    12   ar
    14     3    12   ar
    15     3     2    1
    16    12    13    1
    17     2     1    1
    18    24    22    1
    19     1    22    1
    20     1    18    1
    21    22    23    1
    22    22    25    1
    23    21    18    1
    24    18    19    1
    25    18    20    1
