@<TRIPOS>MOLECULE
2
 25 25 0 0 0
SMALL
GASTEIGER

@<TRIPOS>ATOM
      1 SI         -0.1436    6.5227    8.7609 Si      1  UNL1        0.0000
      2 N          -0.2075    6.0250    7.1015 N.pl3   1  UNL1        0.0000
      3 C          -0.9781    6.6606    6.1608 C.ar    1  UNL1        0.0000
      4 C          -1.1193    6.1065    4.8727 C.ar    1  UNL1        0.0000
      5 H          -0.6288    5.1530    4.6459 H       1  UNL1        0.0000
      6 C          -1.8814    6.7172    3.8955 C.ar    1  UNL1        0.0000
      7 H          -1.9675    6.2520    2.9234 H       1  UNL1        0.0000
      8 C          -2.5364    7.9090    4.1558 C.ar    1  UNL1        0.0000
      9 H          -3.1333    8.3862    3.3941 H       1  UNL1        0.0000
     10 C          -2.4148    8.4734    5.4164 C.ar    1  UNL1        0.0000
     11 H          -2.9217    9.4017    5.6393 H       1  UNL1        0.0000
     12 C          -1.6565    7.8694    6.3963 C.ar    1  UNL1        0.0000
     13 H          -1.5789    8.3282    7.3680 H       1  UNL1        0.0000
     14 C          -1.8704    6.5819    9.5994 C.3     1  UNL1        0.0000
     15 H          -1.9771    7.4618   10.2261 H       1  UNL1        0.0000
     16 H          -2.0384    5.7118   10.2271 H       1  UNL1        0.0000
     17 H          -2.6646    6.6082    8.8594 H       1  UNL1        0.0000
     18 C           0.7673    8.1813    9.0944 C.3     1  UNL1        0.0000
     19 H           0.7327    8.4288   10.1510 H       1  UNL1        0.0000
     20 H           0.3286    9.0118    8.5503 H       1  UNL1        0.0000
     21 H           1.8138    8.1210    8.8099 H       1  UNL1        0.0000
     22 C           0.9010    5.1612    9.6135 C.3     1  UNL1        0.0000
     23 H           0.7803    5.2124   10.6911 H       1  UNL1        0.0000
     24 H           1.9615    5.2825    9.4044 H       1  UNL1        0.0000
     25 H           0.5982    4.1589    9.2993 H       1  UNL1        0.0000
@<TRIPOS>BOND
     1     7     6    1
     2     9     8    1
     3     6     8   ar
     4     6     4   ar
     5     8    10   ar
     6     5     4    1
     7     4     3   ar
     8    10    11    1
     9    10    12   ar
    10     3    12   ar
    11     3     2    1
    12    12    13    1
    13     2     1    1
    14    20    18    1
    15     1    18    1
    16     1    14    1
    17     1    22    1
    18    21    18    1
    19    17    14    1
    20    18    19    1
    21    25    22    1
    22    24    22    1
    23    14    15    1
    24    14    16    1
    25    22    23    1
