@<TRIPOS>MOLECULE
1
 11 11 0 0 0
SMALL
GASTEIGER

@<TRIPOS>ATOM
      1 N           9.3072    2.0986    5.4860 N.pl3   1  UNL1       -0.2487
      2 C           8.0974    1.5187    5.3110 C.3     1  UNL1        0.0840
      3 C           6.9309    2.0076    5.8567 C.2     1  UNL1       -0.0600
      4 C           6.9624    3.1525    6.6445 C.2     1  UNL1       -0.0626
      5 C           8.2103    3.7379    6.8585 C.2     1  UNL1       -0.0466
      6 C           9.3300    3.1936    6.2797 C.2     1  UNL1        0.0121
      7 H           8.0883    0.6076    4.7254 H       1  UNL1        0.0584
      8 H           6.0008    1.4918    5.6700 H       1  UNL1        0.0592
      9 H           6.0652    3.5630    7.0769 H       1  UNL1        0.0615
     10 H           8.3037    4.6197    7.4737 H       1  UNL1        0.0630
     11 H          10.3054    3.6367    6.4147 H       1  UNL1        0.0797
@<TRIPOS>BOND
     1     7     2    1
     2     2     1    1
     3     2     3    1
     4     1     6    1
     5     8     3    1
     6     3     4    2
     7     6    11    1
     8     6     5    2
     9     4     5    1
    10     4     9    1
    11     5    10    1
