@<TRIPOS>MOLECULE
3
 27 26 0 0 0
SMALL
GASTEIGER

@<TRIPOS>ATOM
      1 SI         13.8355    1.7071    4.6026 Si      1  UNL1        0.0000
      2 SI         12.2945    4.2618    4.0970 Si      1  UNL1        0.0000
      3 N          12.3280    2.5764    4.5018 N.3     1  UNL1        0.0000
      4 C          13.7963   -0.0704    3.8760 C.3     1  UNL1        0.0000
      5 C          14.4882    1.5371    6.3968 C.3     1  UNL1        0.0000
      6 C          15.2767    2.5331    3.6444 C.3     1  UNL1        0.0000
      7 C          13.2669    5.3451    5.3444 C.3     1  UNL1        0.0000
      8 C          13.0090    4.6060    2.3451 C.3     1  UNL1        0.0000
      9 C          10.5112    4.9781    4.0274 C.3     1  UNL1        0.0000
     10 H          10.2827    5.5604    4.9137 H       1  UNL1        0.0000
     11 H          10.4183    5.6467    3.1778 H       1  UNL1        0.0000
     12 H           9.7466    4.2151    3.9245 H       1  UNL1        0.0000
     13 H          14.2701    4.9609    5.4947 H       1  UNL1        0.0000
     14 H          13.3545    6.3640    4.9805 H       1  UNL1        0.0000
     15 H          12.7844    5.3854    6.3164 H       1  UNL1        0.0000
     16 H          12.8472    3.7716    1.6692 H       1  UNL1        0.0000
     17 H          12.5466    5.4819    1.9004 H       1  UNL1        0.0000
     18 H          14.0757    4.7915    2.3840 H       1  UNL1        0.0000
     19 H          16.1860    1.9585    3.7880 H       1  UNL1        0.0000
     20 H          15.0875    2.5809    2.5785 H       1  UNL1        0.0000
     21 H          15.4698    3.5403    3.9928 H       1  UNL1        0.0000
     22 H          13.7801    0.9967    7.0155 H       1  UNL1        0.0000
     23 H          15.4283    0.9931    6.4057 H       1  UNL1        0.0000
     24 H          14.6679    2.5033    6.8563 H       1  UNL1        0.0000
     25 H          12.8472   -0.5709    4.0357 H       1  UNL1        0.0000
     26 H          14.0136   -0.0752    2.8120 H       1  UNL1        0.0000
     27 H          14.5654   -0.6681    4.3565 H       1  UNL1        0.0000
@<TRIPOS>BOND
     1    16     8    1
     2    17     8    1
     3     8    18    1
     4     8     2    1
     5    20     6    1
     6    26     4    1
     7    11     9    1
     8     6    19    1
     9     6    21    1
    10     6     1    1
    11     4    25    1
    12     4    27    1
    13     4     1    1
    14    12     9    1
    15     9     2    1
    16     9    10    1
    17     2     3    1
    18     2     7    1
    19     3     1    1
    20     1     5    1
    21    14     7    1
    22     7    13    1
    23     7    15    1
    24     5    23    1
    25     5    24    1
    26     5    22    1
