@<TRIPOS>MOLECULE
3
 27 26 0 0 0
SMALL
GASTEIGER

@<TRIPOS>ATOM
      1 SI         10.1246   10.8843    0.9568 Si      1  UNL1        0.0000
      2 SI         12.7603    9.4350    0.3932 Si      1  UNL1        0.0000
      3 N          11.5045    9.9712    1.4497 N.3     1  UNL1        0.0000
      4 C           9.4247   11.3900    2.6816 C.3     1  UNL1        0.0000
      5 C           8.8430    9.8645   -0.0268 C.3     1  UNL1        0.0000
      6 C          10.5414   12.4615   -0.0348 C.3     1  UNL1        0.0000
      7 C          12.1429    8.4686   -1.1332 C.3     1  UNL1        0.0000
      8 C          13.6934    8.2247    1.5703 C.3     1  UNL1        0.0000
      9 C          13.9164   10.8364   -0.1980 C.3     1  UNL1        0.0000
     10 H           8.3646   11.6201    2.6227 H       1  UNL1        0.0000
     11 H           9.9142   12.2866    3.0649 H       1  UNL1        0.0000
     12 H           9.5504   10.5585    3.3904 H       1  UNL1        0.0000
     13 H           7.8744   10.3533   -0.0368 H       1  UNL1        0.0000
     14 H           8.7083    8.8648    0.3734 H       1  UNL1        0.0000
     15 H           9.1577    9.7621   -1.0597 H       1  UNL1        0.0000
     16 H          11.2995   13.0712    0.4471 H       1  UNL1        0.0000
     17 H           9.6600   13.0789   -0.1703 H       1  UNL1        0.0000
     18 H          10.9089   12.2041   -1.0218 H       1  UNL1        0.0000
     19 H          11.4419    7.6809   -0.8750 H       1  UNL1        0.0000
     20 H          12.9708    8.0112   -1.6640 H       1  UNL1        0.0000
     21 H          11.6437    9.1344   -1.8282 H       1  UNL1        0.0000
     22 H          13.2371    7.2336    1.5686 H       1  UNL1        0.0000
     23 H          13.7032    8.6345    2.5910 H       1  UNL1        0.0000
     24 H          14.7246    8.0888    1.2568 H       1  UNL1        0.0000
     25 H          14.1437   11.5503    0.5871 H       1  UNL1        0.0000
     26 H          14.8553   10.4414   -0.5719 H       1  UNL1        0.0000
     27 H          13.4556   11.3843   -1.0127 H       1  UNL1        0.0000
@<TRIPOS>BOND
     1    21     7    1
     2    20     7    1
     3     7    19    1
     4     7     2    1
     5    15     5    1
     6    18     6    1
     7    27     9    1
     8    26     9    1
     9     9     2    1
    10     9    25    1
    11    17     6    1
    12    13     5    1
    13     6    16    1
    14     6     1    1
    15     5    14    1
    16     5     1    1
    17     2     3    1
    18     2     8    1
    19     1     3    1
    20     1     4    1
    21    24     8    1
    22    22     8    1
    23     8    23    1
    24    10     4    1
    25     4    11    1
    26     4    12    1
