@<TRIPOS>MOLECULE
3
 27 26 0 0 0
SMALL
GASTEIGER

@<TRIPOS>ATOM
      1 SI         14.2615   11.2715    4.2057 Si      1  UNL1        0.0000
      2 SI         14.0236    8.4784    5.4353 Si      1  UNL1        0.0000
      3 N          13.4490    9.7661    4.4392 N.3     1  UNL1        0.0000
      4 C          12.8659   12.2716    3.3272 C.3     1  UNL1        0.0000
      5 C          14.7495   12.1579    5.8242 C.3     1  UNL1        0.0000
      6 C          15.8029   11.1443    3.0844 C.3     1  UNL1        0.0000
      7 C          12.8289    7.0686    4.8830 C.3     1  UNL1        0.0000
      8 C          13.8500    8.8210    7.3068 C.3     1  UNL1        0.0000
      9 C          15.8226    7.9523    5.0733 C.3     1  UNL1        0.0000
     10 H          12.1706   12.7074    4.0464 H       1  UNL1        0.0000
     11 H          12.3259   11.6154    2.6294 H       1  UNL1        0.0000
     12 H          13.2767   13.0992    2.7560 H       1  UNL1        0.0000
     13 H          13.9306   12.2111    6.5350 H       1  UNL1        0.0000
     14 H          15.5690   11.6391    6.3088 H       1  UNL1        0.0000
     15 H          15.0814   13.1715    5.6278 H       1  UNL1        0.0000
     16 H          16.6323   10.7092    3.6312 H       1  UNL1        0.0000
     17 H          16.1236   12.1240    2.7460 H       1  UNL1        0.0000
     18 H          15.6310   10.5288    2.2074 H       1  UNL1        0.0000
     19 H          11.8216    7.4793    4.7207 H       1  UNL1        0.0000
     20 H          12.7547    6.2967    5.6439 H       1  UNL1        0.0000
     21 H          13.1837    6.5756    3.9766 H       1  UNL1        0.0000
     22 H          13.9389    7.9062    7.8834 H       1  UNL1        0.0000
     23 H          14.6385    9.4861    7.6421 H       1  UNL1        0.0000
     24 H          12.9022    9.2843    7.5607 H       1  UNL1        0.0000
     25 H          16.5170    8.7100    5.4187 H       1  UNL1        0.0000
     26 H          16.0694    7.0307    5.5892 H       1  UNL1        0.0000
     27 H          16.0079    7.7971    4.0149 H       1  UNL1        0.0000
@<TRIPOS>BOND
     1    18     6    1
     2    11     4    1
     3    17     6    1
     4    12     4    1
     5     6    16    1
     6     6     1    1
     7     4    10    1
     8     4     1    1
     9    21     7    1
    10    27     9    1
    11     1     3    1
    12     1     5    1
    13     3     2    1
    14    19     7    1
    15     7     2    1
    16     7    20    1
    17     9    25    1
    18     9     2    1
    19     9    26    1
    20     2     8    1
    21    15     5    1
    22     5    14    1
    23     5    13    1
    24     8    24    1
    25     8    23    1
    26     8    22    1
