@<TRIPOS>MOLECULE
3
 27 26 0 0 0
SMALL
GASTEIGER

@<TRIPOS>ATOM
      1 SI          9.6685    9.3794    6.0008 Si      1  UNL1        0.0000
      2 SI          9.1472    7.4538    3.6792 Si      1  UNL1        0.0000
      3 N          10.0399    8.7135    4.4518 N.3     1  UNL1        0.0000
      4 C          10.8189   10.9274    5.9854 C.3     1  UNL1        0.0000
      5 C           7.8567    9.9483    6.1952 C.3     1  UNL1        0.0000
      6 C          10.1065    8.2228    7.4570 C.3     1  UNL1        0.0000
      7 C          10.3590    7.0170    2.2438 C.3     1  UNL1        0.0000
      8 C           7.4609    8.0243    2.9863 C.3     1  UNL1        0.0000
      9 C           8.8744    5.9081    4.7654 C.3     1  UNL1        0.0000
     10 H          10.3525   11.7674    5.4682 H       1  UNL1        0.0000
     11 H          11.0318   11.2680    6.9948 H       1  UNL1        0.0000
     12 H          11.7758   10.6731    5.5069 H       1  UNL1        0.0000
     13 H           7.1932    9.0925    6.2493 H       1  UNL1        0.0000
     14 H           7.7241   10.5165    7.1095 H       1  UNL1        0.0000
     15 H           7.5226   10.5694    5.3699 H       1  UNL1        0.0000
     16 H           9.3511    7.4521    7.5656 H       1  UNL1        0.0000
     17 H          11.0622    7.7263    7.3235 H       1  UNL1        0.0000
     18 H          10.1421    8.7676    8.3946 H       1  UNL1        0.0000
     19 H          10.8105    7.9389    1.8497 H       1  UNL1        0.0000
     20 H           9.8382    6.5258    1.4267 H       1  UNL1        0.0000
     21 H          11.1385    6.3277    2.5722 H       1  UNL1        0.0000
     22 H           7.5195    8.9845    2.4840 H       1  UNL1        0.0000
     23 H           7.0621    7.3031    2.2806 H       1  UNL1        0.0000
     24 H           6.7365    8.1191    3.7880 H       1  UNL1        0.0000
     25 H           8.4790    5.0856    4.1793 H       1  UNL1        0.0000
     26 H           8.1567    6.1178    5.5506 H       1  UNL1        0.0000
     27 H           9.7880    5.5647    5.2408 H       1  UNL1        0.0000
@<TRIPOS>BOND
     1    20     7    1
     2    19     7    1
     3     7    21    1
     4     7     2    1
     5    23     8    1
     6    22     8    1
     7     8     2    1
     8     8    24    1
     9     2     3    1
    10     2     9    1
    11    25     9    1
    12     3     1    1
    13     9    27    1
    14     9    26    1
    15    15     5    1
    16    10     4    1
    17    12     4    1
    18     4     1    1
    19     4    11    1
    20     1     5    1
    21     1     6    1
    22     5    13    1
    23     5    14    1
    24    17     6    1
    25     6    16    1
    26     6    18    1
