@<TRIPOS>MOLECULE
9
 27 26 0 0 0
SMALL
GASTEIGER

@<TRIPOS>ATOM
      1 C           0.1389   -3.3982   14.0802 C.3     1  UNL1        0.0000
      2 C          -1.7198   -3.1984   11.5853 C.3     1  UNL1        0.0000
      3 C          -2.7765   -2.2241   14.3297 C.3     1  UNL1        0.0000
      4 C           0.1572    1.8849   12.5302 C.3     1  UNL1        0.0000
      5 C          -0.8217    0.0882   10.1312 C.3     1  UNL1        0.0000
      6 C          -2.8035    0.9209   12.3626 C.3     1  UNL1        0.0000
      7 SI         -1.2296   -2.3549   13.2214 Si      1  UNL1        0.0000
      8 SI         -0.9966    0.4404   11.9978 Si      1  UNL1        0.0000
      9 N          -0.4038   -0.8442   13.0023 N.3     1  UNL1        0.0000
     10 H           0.8712   -3.7644   13.3616 H       1  UNL1        0.0000
     11 H          -0.2890   -4.2781   14.5513 H       1  UNL1        0.0000
     12 H           0.6403   -2.8203   14.8634 H       1  UNL1        0.0000
     13 H          -0.9034   -3.2435   10.8717 H       1  UNL1        0.0000
     14 H          -2.5381   -2.6669   11.1128 H       1  UNL1        0.0000
     15 H          -2.0562   -4.2139   11.7638 H       1  UNL1        0.0000
     16 H          -3.5975   -1.7771   13.7800 H       1  UNL1        0.0000
     17 H          -3.1067   -3.2068   14.6501 H       1  UNL1        0.0000
     18 H          -2.6146   -1.6235   15.2182 H       1  UNL1        0.0000
     19 H           1.1949    1.5460   12.6223 H       1  UNL1        0.0000
     20 H           0.1412    2.6797   11.7906 H       1  UNL1        0.0000
     21 H          -0.1715    2.3347   13.4660 H       1  UNL1        0.0000
     22 H           0.1312   -0.3601    9.8707 H       1  UNL1        0.0000
     23 H          -1.6014   -0.5896    9.8008 H       1  UNL1        0.0000
     24 H          -0.9279    1.0006    9.5534 H       1  UNL1        0.0000
     25 H          -3.0672    1.8381   11.8474 H       1  UNL1        0.0000
     26 H          -3.4807    0.1499   12.0129 H       1  UNL1        0.0000
     27 H          -2.9964    1.0710   13.4199 H       1  UNL1        0.0000
@<TRIPOS>BOND
     1    24     5    1
     2    23     5    1
     3    22     5    1
     4     5     8    1
     5    13     2    1
     6    14     2    1
     7     2    15    1
     8     2     7    1
     9    20     4    1
    10    25     6    1
    11     8     6    1
    12     8     4    1
    13     8     9    1
    14    26     6    1
    15     6    27    1
    16     4    19    1
    17     4    21    1
    18     9     7    1
    19     7     1    1
    20     7     3    1
    21    10     1    1
    22    16     3    1
    23     1    11    1
    24     1    12    1
    25     3    17    1
    26     3    18    1
