@<TRIPOS>MOLECULE
9
 27 26 0 0 0
SMALL
GASTEIGER

@<TRIPOS>ATOM
      1 C           2.2540   -2.0170   11.4016 C.3     1  UNL1        0.0000
      2 C           5.1885   -0.9790   11.2316 C.3     1  UNL1        0.0000
      3 C           2.9205    0.7171    9.9759 C.3     1  UNL1        0.0000
      4 C           2.7348    1.9522   15.1840 C.3     1  UNL1        0.0000
      5 C           5.5976    0.8900   14.4038 C.3     1  UNL1        0.0000
      6 C           4.1750    2.9904   12.6222 C.3     1  UNL1        0.0000
      7 SI          3.3683   -0.4492   11.4175 Si      1  UNL1        0.0000
      8 SI          3.9069    1.4697   13.7377 Si      1  UNL1        0.0000
      9 N           2.9909    0.2061   12.9794 N.3     1  UNL1        0.0000
     10 H           1.2506   -1.7895   11.7763 H       1  UNL1        0.0000
     11 H           2.1425   -2.3987   10.3911 H       1  UNL1        0.0000
     12 H           2.6941   -2.8253   11.9846 H       1  UNL1        0.0000
     13 H           5.8340   -0.1098   11.1756 H       1  UNL1        0.0000
     14 H           5.3315   -1.5452   10.3176 H       1  UNL1        0.0000
     15 H           5.5368   -1.5927   12.0560 H       1  UNL1        0.0000
     16 H           3.6685    1.4962    9.8763 H       1  UNL1        0.0000
     17 H           2.8957    0.1783    9.0342 H       1  UNL1        0.0000
     18 H           1.9594    1.2033   10.1053 H       1  UNL1        0.0000
     19 H           3.2656    2.5401   15.9270 H       1  UNL1        0.0000
     20 H           1.9091    2.5734   14.8382 H       1  UNL1        0.0000
     21 H           2.3471    1.0619   15.6898 H       1  UNL1        0.0000
     22 H           5.5463   -0.0617   14.9220 H       1  UNL1        0.0000
     23 H           6.0128    1.6198   15.0914 H       1  UNL1        0.0000
     24 H           6.3067    0.7801   13.5905 H       1  UNL1        0.0000
     25 H           4.5784    3.8186   13.1947 H       1  UNL1        0.0000
     26 H           4.8867    2.7664   11.8357 H       1  UNL1        0.0000
     27 H           3.2608    3.3332   12.1484 H       1  UNL1        0.0000
@<TRIPOS>BOND
     1    17     3    1
     2    16     3    1
     3     3    18    1
     4     3     7    1
     5    14     2    1
     6    11     1    1
     7    13     2    1
     8     2     7    1
     9     2    15    1
    10     1     7    1
    11     1    10    1
    12     1    12    1
    13     7     9    1
    14    26     6    1
    15    27     6    1
    16     6    25    1
    17     6     8    1
    18     9     8    1
    19    24     5    1
    20     8     5    1
    21     8     4    1
    22     5    22    1
    23     5    23    1
    24    20     4    1
    25     4    21    1
    26     4    19    1
