@<TRIPOS>MOLECULE
9
 27 26 0 0 0
SMALL
GASTEIGER

@<TRIPOS>ATOM
      1 C           3.6412   -2.5088   14.7787 C.3     1  UNL1        0.0000
      2 C           4.1956   -0.9259   17.4499 C.3     1  UNL1        0.0000
      3 C           0.9205    0.3967   18.5749 C.3     1  UNL1        0.0000
      4 C           2.4766   -3.5042   17.4969 C.3     1  UNL1        0.0000
      5 C          -0.6650    0.7157   15.9075 C.3     1  UNL1        0.0000
      6 C          -0.8757   -1.9327   17.6079 C.3     1  UNL1        0.0000
      7 SI          2.9217   -1.9590   16.4758 Si      1  UNL1        0.0000
      8 SI          0.2770   -0.5242   17.0365 Si      1  UNL1        0.0000
      9 N           1.5368   -1.0472   15.9642 N.3     1  UNL1        0.0000
     10 H           3.6463   -1.6772   14.0660 H       1  UNL1        0.0000
     11 H           3.0870   -3.3503   14.3645 H       1  UNL1        0.0000
     12 H           4.6674   -2.8466   14.8884 H       1  UNL1        0.0000
     13 H           3.8641   -0.7864   18.4731 H       1  UNL1        0.0000
     14 H           5.1541   -1.4327   17.4931 H       1  UNL1        0.0000
     15 H           4.3599    0.0583   17.0243 H       1  UNL1        0.0000
     16 H           0.1012    0.8549   19.1181 H       1  UNL1        0.0000
     17 H           1.4102   -0.2925   19.2535 H       1  UNL1        0.0000
     18 H           1.6326    1.1790   18.3333 H       1  UNL1        0.0000
     19 H           2.1084   -3.2204   18.4763 H       1  UNL1        0.0000
     20 H           3.3509   -4.1274   17.6497 H       1  UNL1        0.0000
     21 H           1.7145   -4.1170   17.0262 H       1  UNL1        0.0000
     22 H          -0.8439    0.2873   14.9166 H       1  UNL1        0.0000
     23 H          -1.6340    0.9619   16.3312 H       1  UNL1        0.0000
     24 H          -0.1259    1.6580   15.8136 H       1  UNL1        0.0000
     25 H          -1.1150   -2.6343   16.8157 H       1  UNL1        0.0000
     26 H          -1.8094   -1.5373   17.9945 H       1  UNL1        0.0000
     27 H          -0.4124   -2.4952   18.4114 H       1  UNL1        0.0000
@<TRIPOS>BOND
     1    10     1    1
     2    11     1    1
     3     1    12    1
     4     1     7    1
     5    22     5    1
     6    24     5    1
     7     5    23    1
     8     5     8    1
     9     9     7    1
    10     9     8    1
    11     7     2    1
    12     7     4    1
    13    25     6    1
    14    15     2    1
    15    21     4    1
    16     8     6    1
    17     8     3    1
    18     2    14    1
    19     2    13    1
    20     4    20    1
    21     4    19    1
    22     6    26    1
    23     6    27    1
    24    18     3    1
    25     3    16    1
    26     3    17    1
