@<TRIPOS>MOLECULE
1
 19 19 0 0 0
SMALL
GASTEIGER

@<TRIPOS>ATOM
      1 N           5.2003    0.8214    3.1699 N.pl3   1  UNL1       -0.2486
      2 N           6.4351   -2.4842    0.9134 N.pl3   1  UNL1       -0.3362
      3 C           4.3340    0.0690    2.4879 C.3     1  UNL1        0.0857
      4 H           3.2933    0.3587    2.5409 H       1  UNL1        0.0584
      5 C           4.6865   -1.0248    1.7341 C.2     1  UNL1       -0.0389
      6 H           3.9120   -1.5603    1.2130 H       1  UNL1        0.0610
      7 C           6.0353   -1.4192    1.6465 C.2     1  UNL1        0.0283
      8 C           6.9359   -0.6300    2.3874 C.2     1  UNL1       -0.0256
      9 H           7.9904   -0.8454    2.3983 H       1  UNL1        0.0649
     10 C           6.4799    0.4480    3.1086 C.2     1  UNL1        0.0139
     11 H           7.1869    1.0492    3.6631 H       1  UNL1        0.0798
     12 C           5.4771   -3.2336    0.1356 C.3     1  UNL1        0.0004
     13 H           4.7096   -3.6700    0.7801 H       1  UNL1        0.0428
     14 H           5.9835   -4.0437   -0.3823 H       1  UNL1        0.0428
     15 H           4.9898   -2.6000   -0.6113 H       1  UNL1        0.0428
     16 C           7.8376   -2.8094    0.8064 C.3     1  UNL1        0.0004
     17 H           8.4051   -1.9781    0.3783 H       1  UNL1        0.0428
     18 H           7.9620   -3.6750    0.1615 H       1  UNL1        0.0428
     19 H           8.2570   -3.0526    1.7864 H       1  UNL1        0.0428
@<TRIPOS>BOND
     1    15    12    1
     2    14    12    1
     3    12    13    1
     4    12     2    1
     5    18    16    1
     6    17    16    1
     7    16     2    1
     8    16    19    1
     9     2     7    1
    10     6     5    1
    11     7     5    2
    12     7     8    1
    13     5     3    1
    14     8     9    1
    15     8    10    2
    16     3     4    1
    17     3     1    1
    18    10     1    1
    19    10    11    1
