@<TRIPOS>MOLECULE
1
 19 19 0 0 0
SMALL
GASTEIGER

@<TRIPOS>ATOM
      1 N           0.5518    0.7420    3.0918 N.pl3   1  UNL1       -0.2486
      2 N           1.9164   -1.5305   -0.1533 N.pl3   1  UNL1       -0.3362
      3 C           0.1570   -0.5181    2.8959 C.3     1  UNL1        0.0857
      4 H          -0.5421   -0.9244    3.6140 H       1  UNL1        0.0584
      5 C           0.5772   -1.3073    1.8518 C.2     1  UNL1       -0.0389
      6 H           0.1918   -2.3094    1.7779 H       1  UNL1        0.0610
      7 C           1.4837   -0.8003    0.9011 C.2     1  UNL1        0.0283
      8 C           1.9135    0.5201    1.1341 C.2     1  UNL1       -0.0256
      9 H           2.6155    1.0039    0.4773 H       1  UNL1        0.0649
     10 C           1.4292    1.2259    2.2102 C.2     1  UNL1        0.0139
     11 H           1.7633    2.2421    2.3662 H       1  UNL1        0.0798
     12 C           1.4152   -2.8670   -0.3686 C.3     1  UNL1        0.0004
     13 H           1.6699   -3.5187    0.4715 H       1  UNL1        0.0428
     14 H           1.8632   -3.2831   -1.2669 H       1  UNL1        0.0428
     15 H           0.3289   -2.8667   -0.4958 H       1  UNL1        0.0428
     16 C           2.8029   -0.9442   -1.1303 C.3     1  UNL1        0.0004
     17 H           2.3539   -0.0592   -1.5901 H       1  UNL1        0.0428
     18 H           3.0094   -1.6674   -1.9145 H       1  UNL1        0.0428
     19 H           3.7539   -0.6573   -0.6729 H       1  UNL1        0.0428
@<TRIPOS>BOND
     1    18    16    1
     2    17    16    1
     3    14    12    1
     4    16    19    1
     5    16     2    1
     6    15    12    1
     7    12     2    1
     8    12    13    1
     9     2     7    1
    10     9     8    1
    11     7     8    1
    12     7     5    2
    13     8    10    2
    14     6     5    1
    15     5     3    1
    16    10    11    1
    17    10     1    1
    18     3     1    1
    19     3     4    1
