@<TRIPOS>MOLECULE
3
 27 26 0 0 0
SMALL
GASTEIGER

@<TRIPOS>ATOM
      1 SI          6.1933   -2.3938    5.5202 Si      1  UNL1        0.0000
      2 SI          6.0014   -2.5325    2.5088 Si      1  UNL1        0.0000
      3 N           5.9770   -1.6550    3.9850 N.3     1  UNL1        0.0000
      4 C           5.8428   -1.0036    6.8126 C.3     1  UNL1        0.0000
      5 C           5.0308   -3.8554    5.9355 C.3     1  UNL1        0.0000
      6 C           7.9492   -3.0925    5.8498 C.3     1  UNL1        0.0000
      7 C           5.9293   -1.1963    1.1176 C.3     1  UNL1        0.0000
      8 C           4.5355   -3.7454    2.2600 C.3     1  UNL1        0.0000
      9 C           7.5509   -3.6036    2.1742 C.3     1  UNL1        0.0000
     10 H           5.7897   -0.0071    6.3417 H       1  UNL1        0.0000
     11 H           4.9010   -1.1823    7.3212 H       1  UNL1        0.0000
     12 H           6.6158   -0.9662    7.5729 H       1  UNL1        0.0000
     13 H           3.9826   -3.5860    5.8736 H       1  UNL1        0.0000
     14 H           5.1990   -4.6722    5.2427 H       1  UNL1        0.0000
     15 H           5.2158   -4.2314    6.9368 H       1  UNL1        0.0000
     16 H           8.7365   -2.4521    5.4670 H       1  UNL1        0.0000
     17 H           8.0595   -4.0567    5.3656 H       1  UNL1        0.0000
     18 H           8.1287   -3.2386    6.9106 H       1  UNL1        0.0000
     19 H           6.8848   -1.1226    0.6085 H       1  UNL1        0.0000
     20 H           5.6805   -0.1982    1.5169 H       1  UNL1        0.0000
     21 H           5.1851   -1.4442    0.3681 H       1  UNL1        0.0000
     22 H           4.3571   -3.9519    1.2091 H       1  UNL1        0.0000
     23 H           4.7531   -4.6911    2.7443 H       1  UNL1        0.0000
     24 H           3.6092   -3.3757    2.6865 H       1  UNL1        0.0000
     25 H           8.4700   -3.0298    2.2076 H       1  UNL1        0.0000
     26 H           7.4947   -4.0805    1.2006 H       1  UNL1        0.0000
     27 H           7.6289   -4.3882    2.9186 H       1  UNL1        0.0000
@<TRIPOS>BOND
     1    21     7    1
     2    19     7    1
     3     7    20    1
     4     7     2    1
     5    26     9    1
     6    22     8    1
     7     9    25    1
     8     9     2    1
     9     9    27    1
    10     8     2    1
    11     8    24    1
    12     8    23    1
    13     2     3    1
    14     3     1    1
    15    14     5    1
    16    17     6    1
    17    16     6    1
    18     1     6    1
    19     1     5    1
    20     1     4    1
    21     6    18    1
    22    13     5    1
    23     5    15    1
    24    10     4    1
    25     4    11    1
    26     4    12    1
