@<TRIPOS>MOLECULE
3
 27 26 0 0 0
SMALL
GASTEIGER

@<TRIPOS>ATOM
      1 SI          3.0683   -0.4925    3.2161 Si      1  UNL1        0.0000
      2 SI          5.3047    1.3857    2.3826 Si      1  UNL1        0.0000
      3 N           3.6586    1.0538    2.7577 N.3     1  UNL1        0.0000
      4 C           6.0391    2.6093    3.6647 C.3     1  UNL1        0.0000
      5 H           5.3695    3.4556    3.8216 H       1  UNL1        0.0000
      6 H           6.9994    2.9979    3.3412 H       1  UNL1        0.0000
      7 H           6.1909    2.1244    4.6241 H       1  UNL1        0.0000
      8 C           3.4692   -1.9181    1.9971 C.3     1  UNL1        0.0000
      9 H           3.4278   -1.5930    0.9616 H       1  UNL1        0.0000
     10 H           2.7718   -2.7422    2.1125 H       1  UNL1        0.0000
     11 H           4.4649   -2.3064    2.1768 H       1  UNL1        0.0000
     12 C           1.1535   -0.3075    3.2452 C.3     1  UNL1        0.0000
     13 H           0.8650    0.7004    3.5804 H       1  UNL1        0.0000
     14 H           0.7032   -1.0200    3.9292 H       1  UNL1        0.0000
     15 H           0.7157   -0.4879    2.2661 H       1  UNL1        0.0000
     16 C           6.4896   -0.1060    2.3026 C.3     1  UNL1        0.0000
     17 H           6.4336   -0.6946    3.2109 H       1  UNL1        0.0000
     18 H           7.5187    0.2149    2.1789 H       1  UNL1        0.0000
     19 H           6.2458   -0.7590    1.4726 H       1  UNL1        0.0000
     20 C           3.6326   -1.0863    4.9518 C.3     1  UNL1        0.0000
     21 H           4.7098   -1.0004    5.0531 H       1  UNL1        0.0000
     22 H           3.3697   -2.1260    5.1213 H       1  UNL1        0.0000
     23 H           3.1818   -0.4976    5.7456 H       1  UNL1        0.0000
     24 C           5.3817    2.2282    0.6575 C.3     1  UNL1        0.0000
     25 H           5.2593    1.5038   -0.1419 H       1  UNL1        0.0000
     26 H           6.3345    2.7231    0.5029 H       1  UNL1        0.0000
     27 H           4.5976    2.9761    0.5605 H       1  UNL1        0.0000
@<TRIPOS>BOND
     1    25    24    1
     2    26    24    1
     3    27    24    1
     4    24     2    1
     5     9     8    1
     6    19    16    1
     7     8    10    1
     8     8    11    1
     9     8     1    1
    10    18    16    1
    11    15    12    1
    12    16     2    1
    13    16    17    1
    14     2     3    1
    15     2     4    1
    16     3     1    1
    17     1    12    1
    18     1    20    1
    19    12    13    1
    20    12    14    1
    21     6     4    1
    22     4     5    1
    23     4     7    1
    24    20    21    1
    25    20    22    1
    26    20    23    1
