@<TRIPOS>MOLECULE
3
 27 26 0 0 0
SMALL
GASTEIGER

@<TRIPOS>ATOM
      1 SI          1.1023    2.8867    5.9704 Si      1  UNL1        0.0000
      2 SI         -0.8674    3.3699    3.7203 Si      1  UNL1        0.0000
      3 N           0.6942    2.9476    4.3012 N.3     1  UNL1        0.0000
      4 C           3.0190    2.7335    6.0139 C.3     1  UNL1        0.0000
      5 H           3.3719    2.0061    5.2713 H       1  UNL1        0.0000
      6 H           3.3691    2.4013    6.9863 H       1  UNL1        0.0000
      7 H           3.4917    3.6948    5.8135 H       1  UNL1        0.0000
      8 C          -2.3074    3.2639    4.9662 C.3     1  UNL1        0.0000
      9 H          -2.3887    2.2689    5.3897 H       1  UNL1        0.0000
     10 H          -3.2553    3.4999    4.4933 H       1  UNL1        0.0000
     11 H          -2.1648    3.9591    5.7849 H       1  UNL1        0.0000
     12 C           0.6514    4.4478    6.9789 C.3     1  UNL1        0.0000
     13 H           0.8901    5.3495    6.4240 H       1  UNL1        0.0000
     14 H           1.1870    4.4847    7.9223 H       1  UNL1        0.0000
     15 H          -0.4089    4.4726    7.2034 H       1  UNL1        0.0000
     16 C          -1.3496    2.1914    2.2772 C.3     1  UNL1        0.0000
     17 H          -0.4830    1.9242    1.6770 H       1  UNL1        0.0000
     18 H          -2.0838    2.6508    1.6226 H       1  UNL1        0.0000
     19 H          -1.7834    1.2712    2.6546 H       1  UNL1        0.0000
     20 C           0.3906    1.3679    6.8991 C.3     1  UNL1        0.0000
     21 H          -0.6919    1.4172    6.9440 H       1  UNL1        0.0000
     22 H           0.7580    1.3203    7.9197 H       1  UNL1        0.0000
     23 H           0.6576    0.4378    6.4061 H       1  UNL1        0.0000
     24 C          -0.8647    5.1550    3.0172 C.3     1  UNL1        0.0000
     25 H          -0.7883    5.8788    3.8212 H       1  UNL1        0.0000
     26 H          -1.7718    5.3753    2.4631 H       1  UNL1        0.0000
     27 H          -0.0172    5.3142    2.3548 H       1  UNL1        0.0000
@<TRIPOS>BOND
     1    18    16    1
     2    17    16    1
     3    16    19    1
     4    16     2    1
     5    27    24    1
     6    26    24    1
     7    24     2    1
     8    24    25    1
     9     2     3    1
    10     2     8    1
    11     3     1    1
    12    10     8    1
    13     8     9    1
    14     8    11    1
    15     5     4    1
    16     7     4    1
    17     1     4    1
    18     1    20    1
    19     1    12    1
    20     4     6    1
    21    23    20    1
    22    13    12    1
    23    20    21    1
    24    20    22    1
    25    12    15    1
    26    12    14    1
