@<TRIPOS>MOLECULE
3
 27 26 0 0 0
SMALL
GASTEIGER

@<TRIPOS>ATOM
      1 SI         -1.1776   -2.4296    9.6957 Si      1  UNL1        0.0000
      2 SI          1.9075   -2.2915    9.2768 Si      1  UNL1        0.0000
      3 N           0.3595   -1.6411    9.6664 N.3     1  UNL1        0.0000
      4 C          -1.0695   -4.2995   10.0555 C.3     1  UNL1        0.0000
      5 C          -1.9571   -2.1773    7.9668 C.3     1  UNL1        0.0000
      6 C          -2.1885   -1.5637   11.0557 C.3     1  UNL1        0.0000
      7 C           1.9684   -3.0839    7.5354 C.3     1  UNL1        0.0000
      8 C           3.0039   -0.7204    9.2853 C.3     1  UNL1        0.0000
      9 C           2.5762   -3.5550   10.5464 C.3     1  UNL1        0.0000
     10 H          -2.0543   -4.7549   10.0562 H       1  UNL1        0.0000
     11 H          -0.6173   -4.4871   11.0230 H       1  UNL1        0.0000
     12 H          -0.4705   -4.8065    9.3069 H       1  UNL1        0.0000
     13 H          -3.0406   -2.2345    7.9866 H       1  UNL1        0.0000
     14 H          -1.6024   -2.9263    7.2663 H       1  UNL1        0.0000
     15 H          -1.6704   -1.2060    7.5782 H       1  UNL1        0.0000
     16 H          -3.2562   -1.6404   10.8833 H       1  UNL1        0.0000
     17 H          -1.9202   -0.5158   11.0839 H       1  UNL1        0.0000
     18 H          -1.9814   -1.9875   12.0322 H       1  UNL1        0.0000
     19 H           2.9805   -3.3501    7.2485 H       1  UNL1        0.0000
     20 H           1.5747   -2.4064    6.7850 H       1  UNL1        0.0000
     21 H           1.3696   -3.9877    7.5060 H       1  UNL1        0.0000
     22 H           2.7908   -0.1058    8.4153 H       1  UNL1        0.0000
     23 H           4.0612   -0.9534    9.2721 H       1  UNL1        0.0000
     24 H           2.8059   -0.1289   10.1788 H       1  UNL1        0.0000
     25 H           3.6145   -3.8004   10.3468 H       1  UNL1        0.0000
     26 H           2.0068   -4.4767   10.5104 H       1  UNL1        0.0000
     27 H           2.5140   -3.1691   11.5583 H       1  UNL1        0.0000
@<TRIPOS>BOND
     1    20     7    1
     2    19     7    1
     3    14     5    1
     4    21     7    1
     5     7     2    1
     6    15     5    1
     7     5    13    1
     8     5     1    1
     9    22     8    1
    10    23     8    1
    11     2     8    1
    12     2     3    1
    13     2     9    1
    14     8    24    1
    15    12     4    1
    16     3     1    1
    17     1     4    1
    18     1     6    1
    19     4    10    1
    20     4    11    1
    21    25     9    1
    22    26     9    1
    23     9    27    1
    24    16     6    1
    25     6    17    1
    26     6    18    1
