@<TRIPOS>MOLECULE
1
 21 23 0 0 0
SMALL
GASTEIGER

@<TRIPOS>ATOM
      1 N           5.6140   -0.1832    7.4379 N.ar    1  UNL1       -0.2467
      2 C           6.0160   -1.4718    7.7118 C.ar    1  UNL1        0.0723
      3 C           5.2711   -2.4992    8.2808 C.ar    1  UNL1       -0.0357
      4 C           5.8980   -3.7130    8.4924 C.ar    1  UNL1       -0.0597
      5 C           7.2333   -3.9123    8.1483 C.ar    1  UNL1       -0.0611
      6 C           7.9831   -2.8960    7.5874 C.ar    1  UNL1       -0.0519
      7 C           7.3772   -1.6677    7.3682 C.ar    1  UNL1        0.0095
      8 C           7.8315   -0.4053    6.8478 C.ar    1  UNL1        0.0095
      9 C           9.0410    0.0464    6.3417 C.ar    1  UNL1       -0.0519
     10 C           9.1343    1.3611    5.9277 C.ar    1  UNL1       -0.0611
     11 C           8.0433    2.2216    6.0247 C.ar    1  UNL1       -0.0597
     12 C           6.8296    1.7964    6.5309 C.ar    1  UNL1       -0.0357
     13 C           6.7183    0.4691    6.9327 C.ar    1  UNL1        0.0723
     14 H           4.2364   -2.3541    8.5689 H       1  UNL1        0.0639
     15 H           5.3416   -4.5260    8.9362 H       1  UNL1        0.0618
     16 H           7.6868   -4.8755    8.3299 H       1  UNL1        0.0618
     17 H           9.0204   -3.0494    7.3299 H       1  UNL1        0.0624
     18 H           9.8892   -0.6186    6.2742 H       1  UNL1        0.0624
     19 H          10.0663    1.7327    5.5283 H       1  UNL1        0.0618
     20 H           8.1493    3.2468    5.7017 H       1  UNL1        0.0618
     21 H           5.9972    2.4844    6.6144 H       1  UNL1        0.0639
@<TRIPOS>BOND
     1    19    10    1
     2    20    11    1
     3    10    11   ar
     4    10     9   ar
     5    11    12   ar
     6    18     9    1
     7     9     8   ar
     8    12    21    1
     9    12    13   ar
    10     8    13   ar
    11     8     7   ar
    12    13     1   ar
    13    17     6    1
    14     7     6   ar
    15     7     2   ar
    16     1     2   ar
    17     6     5   ar
    18     2     3   ar
    19     5    16    1
    20     5     4   ar
    21     3     4   ar
    22     3    14    1
    23     4    15    1
