@<TRIPOS>MOLECULE
1
 21 23 0 0 0
SMALL
GASTEIGER

@<TRIPOS>ATOM
      1 N           3.6462    1.5759    5.9107 N.ar    1  UNL1       -0.2467
      2 C           3.4447    2.9114    5.6059 C.ar    1  UNL1        0.0723
      3 C           2.9727    3.9321    6.4250 C.ar    1  UNL1       -0.0357
      4 C           2.8550    5.2030    5.8927 C.ar    1  UNL1       -0.0597
      5 C           3.1991    5.4761    4.5719 C.ar    1  UNL1       -0.0611
      6 C           3.6735    4.4747    3.7471 C.ar    1  UNL1       -0.0519
      7 C           3.7956    3.1931    4.2620 C.ar    1  UNL1        0.0095
      8 C           4.2414    1.9459    3.7041 C.ar    1  UNL1        0.0095
      9 C           4.7160    1.5824    2.4528 C.ar    1  UNL1       -0.0519
     10 C           5.0683    0.2649    2.2369 C.ar    1  UNL1       -0.0611
     11 C           4.9372   -0.6793    3.2512 C.ar    1  UNL1       -0.0597
     12 C           4.4604   -0.3378    4.5035 C.ar    1  UNL1       -0.0357
     13 C           4.1203    0.9907    4.7429 C.ar    1  UNL1        0.0723
     14 H           2.7033    3.7445    7.4523 H       1  UNL1        0.0639
     15 H           2.4869    6.0032    6.5179 H       1  UNL1        0.0618
     16 H           3.0933    6.4815    4.1928 H       1  UNL1        0.0618
     17 H           3.9441    4.6799    2.7223 H       1  UNL1        0.0624
     18 H           4.8070    2.3184    1.6683 H       1  UNL1        0.0624
     19 H           5.4439   -0.0415    1.2722 H       1  UNL1        0.0618
     20 H           5.2110   -1.7055    3.0552 H       1  UNL1        0.0618
     21 H           4.3529   -1.1031    5.2622 H       1  UNL1        0.0639
@<TRIPOS>BOND
     1    19    10    1
     2    18     9    1
     3    10     9   ar
     4    10    11   ar
     5     9     8   ar
     6    17     6    1
     7    20    11    1
     8    11    12   ar
     9     8     7   ar
    10     8    13   ar
    11     6     7   ar
    12     6     5   ar
    13    16     5    1
    14     7     2   ar
    15    12    13   ar
    16    12    21    1
    17     5     4   ar
    18    13     1   ar
    19     2     1   ar
    20     2     3   ar
    21     4     3   ar
    22     4    15    1
    23     3    14    1
