@<TRIPOS>MOLECULE
3
 27 26 0 0 0
SMALL
GASTEIGER

@<TRIPOS>ATOM
      1 SI          0.1822    2.9432  -17.1976 Si      1  UNL1        0.0000
      2 SI          2.5480    2.2654  -18.8966 Si      1  UNL1        0.0000
      3 N           1.8886    2.8878  -17.4321 N.3     1  UNL1        0.0000
      4 C          -0.1137    3.1737  -15.3147 C.3     1  UNL1        0.0000
      5 H          -1.1326    3.4925  -15.1147 H       1  UNL1        0.0000
      6 H           0.5550    3.9199  -14.8753 H       1  UNL1        0.0000
      7 H           0.0394    2.2378  -14.7848 H       1  UNL1        0.0000
      8 C          -0.8016    1.3825  -17.7055 C.3     1  UNL1        0.0000
      9 H          -0.6895    1.1902  -18.7667 H       1  UNL1        0.0000
     10 H          -0.4653    0.4986  -17.1740 H       1  UNL1        0.0000
     11 H          -1.8615    1.5011  -17.5036 H       1  UNL1        0.0000
     12 C          -0.6586    4.3783  -18.1597 C.3     1  UNL1        0.0000
     13 H          -0.0661    5.2873  -18.1530 H       1  UNL1        0.0000
     14 H          -0.7988    4.0956  -19.1970 H       1  UNL1        0.0000
     15 H          -1.6389    4.6138  -17.7566 H       1  UNL1        0.0000
     16 C           2.5035    0.3536  -19.0615 C.3     1  UNL1        0.0000
     17 H           1.5374   -0.0438  -18.7737 H       1  UNL1        0.0000
     18 H           3.2564   -0.1207  -18.4393 H       1  UNL1        0.0000
     19 H           2.6909    0.0497  -20.0869 H       1  UNL1        0.0000
     20 C           1.7317    2.9690  -20.4769 C.3     1  UNL1        0.0000
     21 H           1.5989    4.0434  -20.4106 H       1  UNL1        0.0000
     22 H           2.3234    2.7584  -21.3623 H       1  UNL1        0.0000
     23 H           0.7518    2.5289  -20.6242 H       1  UNL1        0.0000
     24 C           4.4073    2.7340  -18.9557 C.3     1  UNL1        0.0000
     25 H           4.5645    3.7213  -19.3778 H       1  UNL1        0.0000
     26 H           4.9603    2.0271  -19.5665 H       1  UNL1        0.0000
     27 H           4.8497    2.7115  -17.9560 H       1  UNL1        0.0000
@<TRIPOS>BOND
     1    22    20    1
     2    23    20    1
     3    20    21    1
     4    20     2    1
     5    19    16    1
     6    26    24    1
     7    25    24    1
     8    14    12    1
     9    16     2    1
    10    16    17    1
    11    16    18    1
    12    24     2    1
    13    24    27    1
    14     2     3    1
    15     9     8    1
    16    12    13    1
    17    12    15    1
    18    12     1    1
    19     8    11    1
    20     8     1    1
    21     8    10    1
    22     3     1    1
    23     1     4    1
    24     4     5    1
    25     4     6    1
    26     4     7    1
