@<TRIPOS>MOLECULE
3
 27 26 0 0 0
SMALL
GASTEIGER

@<TRIPOS>ATOM
      1 SI          2.5333    0.4926  -13.5160 Si      1  UNL1        0.0000
      2 SI          2.3209    3.1214  -12.0315 Si      1  UNL1        0.0000
      3 N           2.6424    2.2096  -13.4563 N.3     1  UNL1        0.0000
      4 C           4.0272   -0.4095  -12.7115 C.3     1  UNL1        0.0000
      5 H           4.0362   -1.4667  -12.9584 H       1  UNL1        0.0000
      6 H           3.9710   -0.3304  -11.6308 H       1  UNL1        0.0000
      7 H           4.9826    0.0087  -13.0127 H       1  UNL1        0.0000
      8 C           0.9815   -0.3206  -12.7466 C.3     1  UNL1        0.0000
      9 H           1.0303   -0.3165  -11.6642 H       1  UNL1        0.0000
     10 H           0.8841   -1.3539  -13.0653 H       1  UNL1        0.0000
     11 H           0.0741    0.1984  -13.0352 H       1  UNL1        0.0000
     12 C           2.4456    0.0279  -15.3803 C.3     1  UNL1        0.0000
     13 H           3.1200    0.6294  -16.0036 H       1  UNL1        0.0000
     14 H           1.4384    0.1735  -15.7585 H       1  UNL1        0.0000
     15 H           2.6954   -1.0176  -15.5340 H       1  UNL1        0.0000
     16 C           0.7567    2.6357  -11.0443 C.3     1  UNL1        0.0000
     17 H          -0.0915    2.4723  -11.6993 H       1  UNL1        0.0000
     18 H           0.9176    1.7246  -10.4802 H       1  UNL1        0.0000
     19 H           0.4835    3.4141  -10.3387 H       1  UNL1        0.0000
     20 C           2.0425    4.9515  -12.5447 C.3     1  UNL1        0.0000
     21 H           1.0047    5.1418  -12.8048 H       1  UNL1        0.0000
     22 H           2.6627    5.2328  -13.3994 H       1  UNL1        0.0000
     23 H           2.2914    5.6232  -11.7282 H       1  UNL1        0.0000
     24 C           3.7589    3.1043  -10.7606 C.3     1  UNL1        0.0000
     25 H           3.9889    2.0862  -10.4646 H       1  UNL1        0.0000
     26 H           4.6638    3.5469  -11.1654 H       1  UNL1        0.0000
     27 H           3.4971    3.6544   -9.8619 H       1  UNL1        0.0000
@<TRIPOS>BOND
     1    13    12    1
     2    14    12    1
     3    15    12    1
     4    12     1    1
     5     1     3    1
     6     1     8    1
     7     1     4    1
     8     3     2    1
     9    22    20    1
    10    10     8    1
    11    11     8    1
    12     7     4    1
    13     5     4    1
    14    21    20    1
    15     8     9    1
    16     4     6    1
    17    20     2    1
    18    20    23    1
    19     2    16    1
    20     2    24    1
    21    17    16    1
    22    26    24    1
    23    16    18    1
    24    16    19    1
    25    24    25    1
    26    24    27    1
