@<TRIPOS>MOLECULE
1
 27 26 0 0 0
SMALL
GASTEIGER

@<TRIPOS>ATOM
      1 N          17.0507    1.4740    3.9005 N.3     1  UNL1        0.0000
      2 SI         15.6896    2.0937    3.0895 Si      1  UNL1        0.0000
      3 C          14.3803    0.7149    3.3021 C.3     1  UNL1        0.0000
      4 H          14.8407   -0.2030    3.6839 H       1  UNL1        0.0000
      5 H          13.8849    0.4647    2.3696 H       1  UNL1        0.0000
      6 H          13.6054    1.0045    4.0015 H       1  UNL1        0.0000
      7 C          14.9554    3.7046    3.8201 C.3     1  UNL1        0.0000
      8 H          14.9431    3.6785    4.9045 H       1  UNL1        0.0000
      9 H          13.9392    3.8761    3.4781 H       1  UNL1        0.0000
     10 H          15.5473    4.5626    3.5238 H       1  UNL1        0.0000
     11 C          15.9872    2.4143    1.2230 C.3     1  UNL1        0.0000
     12 H          16.3838    3.4113    1.0686 H       1  UNL1        0.0000
     13 H          15.0730    2.3369    0.6421 H       1  UNL1        0.0000
     14 H          16.7063    1.7114    0.8160 H       1  UNL1        0.0000
     15 SI         18.5427    2.2024    4.2808 Si      1  UNL1        0.0000
     16 C          18.7889    2.3802    6.1710 C.3     1  UNL1        0.0000
     17 H          17.8452    2.5852    6.6641 H       1  UNL1        0.0000
     18 H          19.4657    3.1947    6.4081 H       1  UNL1        0.0000
     19 H          19.1995    1.4758    6.6052 H       1  UNL1        0.0000
     20 C          20.0177    1.2191    3.5624 C.3     1  UNL1        0.0000
     21 H          20.3117    0.4058    4.2153 H       1  UNL1        0.0000
     22 H          20.8841    1.8573    3.4228 H       1  UNL1        0.0000
     23 H          19.7629    0.7920    2.5989 H       1  UNL1        0.0000
     24 C          18.6408    3.9590    3.5413 C.3     1  UNL1        0.0000
     25 H          17.9140    4.6169    4.0023 H       1  UNL1        0.0000
     26 H          18.4421    3.9422    2.4765 H       1  UNL1        0.0000
     27 H          19.6228    4.3957    3.6902 H       1  UNL1        0.0000
@<TRIPOS>BOND
     1    13    11    1
     2    14    11    1
     3    12    11    1
     4    11     2    1
     5     5     3    1
     6    26    24    1
     7    23    20    1
     8     2     3    1
     9     2     7    1
    10     2     1    1
    11     3     4    1
    12     3     6    1
    13    22    20    1
    14     9     7    1
    15    10     7    1
    16    24    27    1
    17    24    25    1
    18    24    15    1
    19    20    21    1
    20    20    15    1
    21     7     8    1
    22     1    15    1
    23    15    16    1
    24    16    18    1
    25    16    19    1
    26    16    17    1
