@<TRIPOS>MOLECULE
1
 27 26 0 0 0
SMALL
GASTEIGER

@<TRIPOS>ATOM
      1 N          15.3427   -1.7218    5.1513 N.3     1  UNL1        0.0000
      2 SI         15.1633   -3.2715    4.4675 Si      1  UNL1        0.0000
      3 C          16.8125   -4.2403    4.4596 C.3     1  UNL1        0.0000
      4 H          17.3926   -4.0191    5.3487 H       1  UNL1        0.0000
      5 H          17.4202   -3.9877    3.5988 H       1  UNL1        0.0000
      6 H          16.6384   -5.3111    4.4359 H       1  UNL1        0.0000
      7 C          14.4946   -3.1862    2.6756 C.3     1  UNL1        0.0000
      8 H          15.2956   -3.0466    1.9586 H       1  UNL1        0.0000
      9 H          13.8017   -2.3599    2.5626 H       1  UNL1        0.0000
     10 H          13.9670   -4.0952    2.4050 H       1  UNL1        0.0000
     11 C          13.9193   -4.3115    5.4737 C.3     1  UNL1        0.0000
     12 H          14.2037   -4.3503    6.5184 H       1  UNL1        0.0000
     13 H          13.8675   -5.3306    5.1046 H       1  UNL1        0.0000
     14 H          12.9232   -3.8893    5.4181 H       1  UNL1        0.0000
     15 SI         14.5487   -0.9916    6.4668 Si      1  UNL1        0.0000
     16 C          14.9842   -1.7740    8.1616 C.3     1  UNL1        0.0000
     17 H          14.3447   -2.6264    8.3603 H       1  UNL1        0.0000
     18 H          14.8532   -1.0743    8.9813 H       1  UNL1        0.0000
     19 H          16.0098   -2.1264    8.1792 H       1  UNL1        0.0000
     20 C          12.6373   -0.9449    6.3539 C.3     1  UNL1        0.0000
     21 H          12.2158   -1.9091    6.6126 H       1  UNL1        0.0000
     22 H          12.3046   -0.7050    5.3497 H       1  UNL1        0.0000
     23 H          12.2113   -0.2112    7.0314 H       1  UNL1        0.0000
     24 C          15.1752    0.8154    6.4167 C.3     1  UNL1        0.0000
     25 H          15.5075    1.1666    7.3882 H       1  UNL1        0.0000
     26 H          14.4021    1.4972    6.0838 H       1  UNL1        0.0000
     27 H          16.0202    0.9150    5.7266 H       1  UNL1        0.0000
@<TRIPOS>BOND
     1     8     7    1
     2    10     7    1
     3     9     7    1
     4     7     2    1
     5     5     3    1
     6     6     3    1
     7     3     2    1
     8     3     4    1
     9     2     1    1
    10     2    11    1
    11    13    11    1
    12     1    15    1
    13    22    20    1
    14    14    11    1
    15    11    12    1
    16    27    24    1
    17    26    24    1
    18    20    15    1
    19    20    21    1
    20    20    23    1
    21    24    15    1
    22    24    25    1
    23    15    16    1
    24    16    19    1
    25    16    17    1
    26    16    18    1
