@<TRIPOS>MOLECULE
3
 27 26 0 0 0
SMALL
GASTEIGER

@<TRIPOS>ATOM
      1 SI         -1.3628    1.7987   16.2144 Si      1  UNL1        0.0000
      2 SI         -2.9559    3.7519   14.4718 Si      1  UNL1        0.0000
      3 N          -1.4754    3.1633   15.1490 N.3     1  UNL1        0.0000
      4 C          -2.2518    0.2243   15.5874 C.3     1  UNL1        0.0000
      5 H          -3.3046    0.2615   15.8446 H       1  UNL1        0.0000
      6 H          -1.8333   -0.6603   16.0582 H       1  UNL1        0.0000
      7 H          -2.1835    0.0917   14.5149 H       1  UNL1        0.0000
      8 C          -2.0956    2.0647   17.9627 C.3     1  UNL1        0.0000
      9 H          -1.4690    2.6879   18.5900 H       1  UNL1        0.0000
     10 H          -2.2074    1.1069   18.4619 H       1  UNL1        0.0000
     11 H          -3.0774    2.5235   17.9152 H       1  UNL1        0.0000
     12 C           0.5091    1.4296   16.4046 C.3     1  UNL1        0.0000
     13 H           0.7507    0.4200   16.0907 H       1  UNL1        0.0000
     14 H           0.8220    1.5229   17.4385 H       1  UNL1        0.0000
     15 H           1.1229    2.1136   15.8143 H       1  UNL1        0.0000
     16 C          -4.1352    4.6769   15.6622 C.3     1  UNL1        0.0000
     17 H          -4.3732    4.0635   16.5251 H       1  UNL1        0.0000
     18 H          -5.0690    4.8984   15.1539 H       1  UNL1        0.0000
     19 H          -3.7324    5.6129   16.0287 H       1  UNL1        0.0000
     20 C          -2.3717    4.9146   13.0712 C.3     1  UNL1        0.0000
     21 H          -1.2827    4.9867   13.0958 H       1  UNL1        0.0000
     22 H          -2.7862    5.9104   13.1768 H       1  UNL1        0.0000
     23 H          -2.6645    4.5482   12.0936 H       1  UNL1        0.0000
     24 C          -4.0829    2.3957   13.7309 C.3     1  UNL1        0.0000
     25 H          -3.5402    1.6395   13.1775 H       1  UNL1        0.0000
     26 H          -4.8086    2.8394   13.0559 H       1  UNL1        0.0000
     27 H          -4.6356    1.8920   14.5163 H       1  UNL1        0.0000
@<TRIPOS>BOND
     1    23    20    1
     2    26    24    1
     3    20    21    1
     4    20    22    1
     5    20     2    1
     6    25    24    1
     7    24     2    1
     8    24    27    1
     9     2     3    1
    10     2    16    1
    11     7     4    1
    12     3     1    1
    13    18    16    1
    14     4     5    1
    15     4     6    1
    16     4     1    1
    17    16    19    1
    18    16    17    1
    19    15    12    1
    20    13    12    1
    21     1    12    1
    22     1     8    1
    23    12    14    1
    24    11     8    1
    25     8    10    1
    26     8     9    1
