@<TRIPOS>MOLECULE
1
 11 11 0 0 0
SMALL
GASTEIGER

@<TRIPOS>ATOM
      1 N           2.0707    2.3523    6.0012 N.pl3   1  UNL1       -0.2487
      2 C           3.2848    2.8796    5.8280 C.3     1  UNL1        0.0840
      3 C           4.0749    3.3294    6.8703 C.2     1  UNL1       -0.0600
      4 C           3.5946    3.2460    8.1680 C.2     1  UNL1       -0.0626
      5 C           2.3323    2.7032    8.3544 C.2     1  UNL1       -0.0466
      6 C           1.6153    2.2718    7.2535 C.2     1  UNL1        0.0121
      7 H           3.6459    2.9479    4.8112 H       1  UNL1        0.0584
      8 H           5.0499    3.7409    6.6632 H       1  UNL1        0.0592
      9 H           4.1829    3.5900    9.0043 H       1  UNL1        0.0615
     10 H           1.9071    2.6085    9.3411 H       1  UNL1        0.0630
     11 H           0.6379    1.8279    7.3865 H       1  UNL1        0.0797
@<TRIPOS>BOND
     1     7     2    1
     2     2     1    1
     3     2     3    1
     4     1     6    1
     5     8     3    1
     6     3     4    2
     7     6    11    1
     8     6     5    2
     9     4     5    1
    10     4     9    1
    11     5    10    1
