@<TRIPOS>MOLECULE
1
 23 24 0 0 0
SMALL
GASTEIGER

@<TRIPOS>ATOM
      1 N           6.8646    3.8981   24.7150 N.pl3   1  UNL1       -0.2150
      2 C           5.6654    0.7217   22.2568 C.ar    1  UNL1       -0.0616
      3 H           5.3481   -0.0897   21.6205 H       1  UNL1        0.0618
      4 C           8.1111    3.8480   25.2912 C.ar    1  UNL1        0.0537
      5 C           8.6215    4.9674   25.9716 C.ar    1  UNL1       -0.0387
      6 H           8.0239    5.8726   26.0323 H       1  UNL1        0.0637
      7 C           5.6671    1.8004   24.4048 C.ar    1  UNL1       -0.0387
      8 H           5.3766    1.8135   25.4479 H       1  UNL1        0.0637
      9 C           6.9003    2.7583   22.5707 C.ar    1  UNL1       -0.0387
     10 H           7.5734    3.5141   22.1922 H       1  UNL1        0.0637
     11 C           8.9112    2.6958   25.2299 C.ar    1  UNL1       -0.0387
     12 H           8.5425    1.8205   24.7140 H       1  UNL1        0.0637
     13 C          10.1575    2.6686   25.8224 C.ar    1  UNL1       -0.0599
     14 H          10.7523    1.7701   25.7593 H       1  UNL1        0.0618
     15 C           5.2638    0.7625   23.5832 C.ar    1  UNL1       -0.0599
     16 H           4.6396   -0.0216   23.9849 H       1  UNL1        0.0618
     17 C           6.4910    1.7163   21.7580 C.ar    1  UNL1       -0.0599
     18 H           6.8269    1.6795   20.7329 H       1  UNL1        0.0618
     19 C           9.8675    4.9229   26.5670 C.ar    1  UNL1       -0.0599
     20 H          10.2373    5.7944   27.0877 H       1  UNL1        0.0618
     21 C          10.6451    3.7774   26.4954 C.ar    1  UNL1       -0.0616
     22 H          11.6202    3.7514   26.9553 H       1  UNL1        0.0618
     23 C           6.4716    2.8246   23.8978 C.ar    1  UNL1        0.0537
@<TRIPOS>BOND
     1    18    17    1
     2     3     2    1
     3    17     2   ar
     4    17     9   ar
     5    10     9    1
     6     2    15   ar
     7     9    23   ar
     8    15    16    1
     9    15     7   ar
    10    23     7   ar
    11    23     1    1
    12     7     8    1
    13    12    11    1
    14     1     4    1
    15    11     4   ar
    16    11    13   ar
    17     4     5   ar
    18    14    13    1
    19    13    21   ar
    20     5     6    1
    21     5    19   ar
    22    21    19   ar
    23    21    22    1
    24    19    20    1
