@<TRIPOS>MOLECULE
1
 23 24 0 0 0
SMALL
GASTEIGER

@<TRIPOS>ATOM
      1 N           6.0398    6.5665   23.8107 N.pl3   1  UNL1       -0.2150
      2 C           5.6898    7.8891   23.9524 C.ar    1  UNL1        0.0537
      3 C           6.2895    5.9487   21.4704 C.ar    1  UNL1       -0.0387
      4 H           5.2198    6.0299   21.3412 H       1  UNL1        0.0637
      5 C           6.2220    8.8910   23.1243 C.ar    1  UNL1       -0.0387
      6 H           6.9281    8.6226   22.3514 H       1  UNL1        0.0637
      7 C           9.0430    5.8305   21.7829 C.ar    1  UNL1       -0.0599
      8 H          10.1151    5.7970   21.9047 H       1  UNL1        0.0618
      9 C           6.8553    6.2234   22.7165 C.ar    1  UNL1        0.0537
     10 C           4.4203    9.6016   25.0997 C.ar    1  UNL1       -0.0599
     11 H           3.7128    9.8780   25.8682 H       1  UNL1        0.0618
     12 C           5.8557   10.2115   23.2876 C.ar    1  UNL1       -0.0599
     13 H           6.2799   10.9610   22.6370 H       1  UNL1        0.0618
     14 C           8.4722    5.5342   20.5544 C.ar    1  UNL1       -0.0616
     15 H           9.0983    5.2637   19.7186 H       1  UNL1        0.0618
     16 C           4.7706    8.2745   24.9435 C.ar    1  UNL1       -0.0387
     17 H           4.3429    7.5168   25.5926 H       1  UNL1        0.0637
     18 C           4.9556   10.5785   24.2748 C.ar    1  UNL1       -0.0616
     19 H           4.6705   11.6113   24.3968 H       1  UNL1        0.0618
     20 C           8.2456    6.1833   22.8570 C.ar    1  UNL1       -0.0387
     21 H           8.6947    6.4449   23.8069 H       1  UNL1        0.0637
     22 C           7.0970    5.6033   20.4007 C.ar    1  UNL1       -0.0599
     23 H           6.6468    5.3932   19.4426 H       1  UNL1        0.0618
@<TRIPOS>BOND
     1    23    22    1
     2    15    14    1
     3    22    14   ar
     4    22     3   ar
     5    14     7   ar
     6     4     3    1
     7     3     9   ar
     8     7     8    1
     9     7    20   ar
    10     6     5    1
    11    13    12    1
    12     9    20   ar
    13     9     1    1
    14    20    21    1
    15     5    12   ar
    16     5     2   ar
    17    12    18   ar
    18     1     2    1
    19     2    16   ar
    20    18    19    1
    21    18    10   ar
    22    16    10   ar
    23    16    17    1
    24    10    11    1
