@<TRIPOS>MOLECULE
1
 23 24 0 0 0
SMALL
GASTEIGER

@<TRIPOS>ATOM
      1 N           3.9950    4.5835   24.5347 N.pl3   1  UNL1       -0.2150
      2 C           3.5177    3.8430   22.2733 C.ar    1  UNL1       -0.0387
      3 H           3.8692    2.8547   22.5351 H       1  UNL1        0.0637
      4 C           2.5786    5.3657   20.6695 C.ar    1  UNL1       -0.0616
      5 H           2.2223    5.5684   19.6716 H       1  UNL1        0.0618
      6 C           3.5094    4.8471   23.2431 C.ar    1  UNL1        0.0537
      7 C           1.7745    3.8441   25.1783 C.ar    1  UNL1       -0.0387
      8 H           1.3691    4.2095   24.2447 H       1  UNL1        0.0637
      9 C           3.6477    3.4577   26.6383 C.ar    1  UNL1       -0.0387
     10 H           4.7132    3.4956   26.8381 H       1  UNL1        0.0637
     11 C           2.9982    6.1065   22.9170 C.ar    1  UNL1       -0.0387
     12 H           2.9540    6.8776   23.6759 H       1  UNL1        0.0637
     13 C           3.0607    4.1080   20.9944 C.ar    1  UNL1       -0.0599
     14 H           3.0769    3.3249   20.2519 H       1  UNL1        0.0618
     15 C           2.7967    2.8871   27.5644 C.ar    1  UNL1       -0.0599
     16 H           3.2048    2.5010   28.4875 H       1  UNL1        0.0618
     17 C           2.5430    6.3602   21.6353 C.ar    1  UNL1       -0.0599
     18 H           2.1532    7.3373   21.3927 H       1  UNL1        0.0618
     19 C           1.4373    2.7929   27.3126 C.ar    1  UNL1       -0.0616
     20 H           0.7776    2.3401   28.0361 H       1  UNL1        0.0618
     21 C           3.1520    3.9689   25.4279 C.ar    1  UNL1        0.0537
     22 C           0.9365    3.2667   26.1103 C.ar    1  UNL1       -0.0599
     23 H          -0.1185    3.1892   25.8958 H       1  UNL1        0.0618
@<TRIPOS>BOND
     1     5     4    1
     2    14    13    1
     3     4    13   ar
     4     4    17   ar
     5    13     2   ar
     6    18    17    1
     7    17    11   ar
     8     2     3    1
     9     2     6   ar
    10    11     6   ar
    11    11    12    1
    12     6     1    1
    13     8     7    1
    14     1    21    1
    15     7    21   ar
    16     7    22   ar
    17    21     9   ar
    18    23    22    1
    19    22    19   ar
    20     9    10    1
    21     9    15   ar
    22    19    15   ar
    23    19    20    1
    24    15    16    1
