@<TRIPOS>MOLECULE
1
 21 20 0 0 0
SMALL
GASTEIGER

@<TRIPOS>ATOM
      1 N           9.0831    1.1612    2.5585 N.3     1  UNL1        0.0000
      2 SI          7.7904    0.6671    1.5387 Si      1  UNL1        0.0000
      3 H           7.1207    1.9223    1.0301 H       1  UNL1        0.0000
      4 SI          9.9677    0.0229    3.5079 Si      1  UNL1        0.0000
      5 H          11.3217    0.6095    3.7851 H       1  UNL1        0.0000
      6 C           6.4192   -0.4160    2.3022 C.3     1  UNL1        0.0000
      7 H           5.8734    0.1336    3.0601 H       1  UNL1        0.0000
      8 H           6.8301   -1.3061    2.7685 H       1  UNL1        0.0000
      9 H           5.7061   -0.7389    1.5493 H       1  UNL1        0.0000
     10 C           8.3978   -0.3019   -0.0114 C.3     1  UNL1        0.0000
     11 H           9.4815   -0.3505   -0.0538 H       1  UNL1        0.0000
     12 H           8.0504    0.1595   -0.9314 H       1  UNL1        0.0000
     13 H           8.0321   -1.3236   -0.0081 H       1  UNL1        0.0000
     14 C          10.2879   -1.6590    2.6565 C.3     1  UNL1        0.0000
     15 H           9.3628   -2.1349    2.3491 H       1  UNL1        0.0000
     16 H          10.8039   -2.3412    3.3247 H       1  UNL1        0.0000
     17 H          10.9045   -1.5416    1.7718 H       1  UNL1        0.0000
     18 C           9.1289   -0.3791    5.1809 C.3     1  UNL1        0.0000
     19 H           9.8215   -0.8420    5.8779 H       1  UNL1        0.0000
     20 H           8.2898   -1.0581    5.0587 H       1  UNL1        0.0000
     21 H           8.7556    0.5366    5.6304 H       1  UNL1        0.0000
@<TRIPOS>BOND
     1    12    10    1
     2    11    10    1
     3    10    13    1
     4    10     2    1
     5     3     2    1
     6     2     6    1
     7     2     1    1
     8     9     6    1
     9    17    14    1
    10     6     8    1
    11     6     7    1
    12    15    14    1
    13     1     4    1
    14    14    16    1
    15    14     4    1
    16     4     5    1
    17     4    18    1
    18    20    18    1
    19    18    21    1
    20    18    19    1
