@<TRIPOS>MOLECULE
3
 21 20 0 0 0
SMALL
GASTEIGER

@<TRIPOS>ATOM
      1 SI          8.9388    3.5230    6.3460 Si      1  UNL1        0.0000
      2 H           8.9858    4.9801    6.7157 H       1  UNL1        0.0000
      3 N           8.1195    3.2753    4.8580 N.3     1  UNL1        0.0000
      4 C           8.2143    2.6917    7.9064 C.3     1  UNL1        0.0000
      5 H           7.2172    3.0649    8.1133 H       1  UNL1        0.0000
      6 H           8.8279    2.8957    8.7785 H       1  UNL1        0.0000
      7 H           8.1445    1.6139    7.8001 H       1  UNL1        0.0000
      8 SI          6.4120    3.0727    4.7682 Si      1  UNL1        0.0000
      9 H           6.0417    3.0955    3.3172 H       1  UNL1        0.0000
     10 C          10.7350    2.9127    6.1202 C.3     1  UNL1        0.0000
     11 H          10.9919    2.9261    5.0512 H       1  UNL1        0.0000
     12 H          10.8782    1.9025    6.4911 H       1  UNL1        0.0000
     13 H          11.4362    3.5561    6.6406 H       1  UNL1        0.0000
     14 C           5.4401    4.5038    5.6014 C.3     1  UNL1        0.0000
     15 H           4.4418    4.1860    5.8840 H       1  UNL1        0.0000
     16 H           5.3300    5.3596    4.9423 H       1  UNL1        0.0000
     17 H           5.9432    4.8425    6.5017 H       1  UNL1        0.0000
     18 C           5.7178    1.4873    5.5702 C.3     1  UNL1        0.0000
     19 H           4.6983    1.3020    5.2438 H       1  UNL1        0.0000
     20 H           5.7040    1.5620    6.6530 H       1  UNL1        0.0000
     21 H           6.3138    0.6212    5.3074 H       1  UNL1        0.0000
@<TRIPOS>BOND
     1     9     8    1
     2     8     3    1
     3     8    18    1
     4     8    14    1
     5     3     1    1
     6    16    14    1
     7    11    10    1
     8    19    18    1
     9    21    18    1
    10    18    20    1
    11    14    15    1
    12    14    17    1
    13    10     1    1
    14    10    12    1
    15    10    13    1
    16     1     2    1
    17     1     4    1
    18     7     4    1
    19     4     5    1
    20     4     6    1
