@<TRIPOS>MOLECULE
1
 21 20 0 0 0
SMALL
GASTEIGER

@<TRIPOS>ATOM
      1 N          11.2472    4.0564    2.9072 N.3     1  UNL1        0.0000
      2 SI         11.5510    5.6167    3.5554 Si      1  UNL1        0.0000
      3 H          10.4530    5.9357    4.5250 H       1  UNL1        0.0000
      4 SI         12.4833    3.1999    2.0687 Si      1  UNL1        0.0000
      5 H          11.8608    2.0016    1.4271 H       1  UNL1        0.0000
      6 C          11.5458    7.0057    2.2240 C.3     1  UNL1        0.0000
      7 H          11.2234    6.6253    1.2595 H       1  UNL1        0.0000
      8 H          12.5352    7.4306    2.0901 H       1  UNL1        0.0000
      9 H          10.8796    7.8189    2.4970 H       1  UNL1        0.0000
     10 C          13.1910    5.8349    4.5052 C.3     1  UNL1        0.0000
     11 H          13.3133    5.0594    5.2532 H       1  UNL1        0.0000
     12 H          13.2233    6.7933    5.0143 H       1  UNL1        0.0000
     13 H          14.0469    5.7886    3.8394 H       1  UNL1        0.0000
     14 C          13.2805    4.2128    0.6539 C.3     1  UNL1        0.0000
     15 H          13.9899    3.6167    0.0891 H       1  UNL1        0.0000
     16 H          13.8102    5.0764    1.0412 H       1  UNL1        0.0000
     17 H          12.5295    4.5776   -0.0413 H       1  UNL1        0.0000
     18 C          13.9136    2.5721    3.1674 C.3     1  UNL1        0.0000
     19 H          14.5195    1.8452    2.6357 H       1  UNL1        0.0000
     20 H          13.5292    2.0896    4.0603 H       1  UNL1        0.0000
     21 H          14.5684    3.3767    3.4840 H       1  UNL1        0.0000
@<TRIPOS>BOND
     1    17    14    1
     2    15    14    1
     3    14    16    1
     4    14     4    1
     5     7     6    1
     6     5     4    1
     7     4     1    1
     8     4    18    1
     9     8     6    1
    10     6     9    1
    11     6     2    1
    12    19    18    1
    13     1     2    1
    14    18    21    1
    15    18    20    1
    16     2    10    1
    17     2     3    1
    18    13    10    1
    19    10    12    1
    20    10    11    1
