@<TRIPOS>MOLECULE
1
 27 26 0 0 0
SMALL
GASTEIGER

@<TRIPOS>ATOM
      1 N          11.5053    4.1966   12.0015 N.3     1  UNL1        0.0000
      2 SI         11.8824    5.8501   11.6963 Si      1  UNL1        0.0000
      3 SI         12.7167    2.9837   12.1739 Si      1  UNL1        0.0000
      4 C          10.2355    6.7951   12.0224 C.3     1  UNL1        0.0000
      5 H           9.4145    6.0837   12.2025 H       1  UNL1        0.0000
      6 H           9.9625    7.4229   11.1802 H       1  UNL1        0.0000
      7 H          10.3140    7.4414   12.8901 H       1  UNL1        0.0000
      8 C          13.2362    6.5907   12.8256 C.3     1  UNL1        0.0000
      9 H          13.0112    6.4741   13.8801 H       1  UNL1        0.0000
     10 H          13.3643    7.6507   12.6319 H       1  UNL1        0.0000
     11 H          14.1877    6.1061   12.6365 H       1  UNL1        0.0000
     12 C          12.4616    6.2428    9.9121 C.3     1  UNL1        0.0000
     13 H          13.4113    5.7612    9.7078 H       1  UNL1        0.0000
     14 H          12.6001    7.3111    9.7751 H       1  UNL1        0.0000
     15 H          11.7564    5.9031    9.1614 H       1  UNL1        0.0000
     16 C          11.7650    1.3140   12.0672 C.3     1  UNL1        0.0000
     17 H          10.6788    1.4886   11.9623 H       1  UNL1        0.0000
     18 H          11.9252    0.6998   12.9479 H       1  UNL1        0.0000
     19 H          12.0848    0.7363   11.2069 H       1  UNL1        0.0000
     20 C          13.6232    3.0243   13.8656 C.3     1  UNL1        0.0000
     21 H          14.1911    3.9413   13.9755 H       1  UNL1        0.0000
     22 H          14.3208    2.1966   13.9492 H       1  UNL1        0.0000
     23 H          12.9377    2.9626   14.7050 H       1  UNL1        0.0000
     24 C          14.0793    2.9900   10.8379 C.3     1  UNL1        0.0000
     25 H          13.6568    2.9564    9.8402 H       1  UNL1        0.0000
     26 H          14.7414    2.1373   10.9481 H       1  UNL1        0.0000
     27 H          14.6833    3.8873   10.9140 H       1  UNL1        0.0000
@<TRIPOS>BOND
     1    15    12    1
     2    13    12    1
     3    14    12    1
     4    25    24    1
     5    12     2    1
     6    24    27    1
     7    24    26    1
     8    24     3    1
     9     6     4    1
    10    19    16    1
    11     2     1    1
    12     2     4    1
    13     2     8    1
    14    17    16    1
    15     1     3    1
    16     4     5    1
    17     4     7    1
    18    16     3    1
    19    16    18    1
    20     3    20    1
    21    10     8    1
    22    11     8    1
    23     8     9    1
    24    20    22    1
    25    20    21    1
    26    20    23    1
