@<TRIPOS>MOLECULE
3
 27 26 0 0 0
SMALL
GASTEIGER

@<TRIPOS>ATOM
      1 SI          1.7039    3.1136    1.5813 Si      1  UNL1        0.0000
      2 SI          0.9862    1.7656    4.2107 Si      1  UNL1        0.0000
      3 N           2.1226    2.5093    3.1494 N.3     1  UNL1        0.0000
      4 C           3.1954    2.9221    0.3953 C.3     1  UNL1        0.0000
      5 H           4.1321    3.0202    0.9355 H       1  UNL1        0.0000
      6 H           3.1725    3.6780   -0.3834 H       1  UNL1        0.0000
      7 H           3.1939    1.9548   -0.0947 H       1  UNL1        0.0000
      8 C           1.2245    4.9730    1.6437 C.3     1  UNL1        0.0000
      9 H           0.3867    5.1365    2.3138 H       1  UNL1        0.0000
     10 H           0.9339    5.3336    0.6618 H       1  UNL1        0.0000
     11 H           2.0456    5.5891    1.9935 H       1  UNL1        0.0000
     12 C           0.2162    2.2329    0.7639 C.3     1  UNL1        0.0000
     13 H           0.4057    1.1797    0.5918 H       1  UNL1        0.0000
     14 H          -0.0052    2.6860   -0.1969 H       1  UNL1        0.0000
     15 H          -0.6731    2.3134    1.3774 H       1  UNL1        0.0000
     16 C          -0.6176    2.8070    4.4365 C.3     1  UNL1        0.0000
     17 H          -0.4273    3.8743    4.3934 H       1  UNL1        0.0000
     18 H          -1.1010    2.5933    5.3855 H       1  UNL1        0.0000
     19 H          -1.3325    2.5755    3.6540 H       1  UNL1        0.0000
     20 C           0.3403    0.0173    3.7705 C.3     1  UNL1        0.0000
     21 H          -0.0403   -0.0376    2.7573 H       1  UNL1        0.0000
     22 H          -0.4741   -0.2450    4.4398 H       1  UNL1        0.0000
     23 H           1.1117   -0.7360    3.8842 H       1  UNL1        0.0000
     24 C           1.8352    1.5630    5.9195 C.3     1  UNL1        0.0000
     25 H           2.0356    0.5176    6.1273 H       1  UNL1        0.0000
     26 H           1.2190    1.9402    6.7305 H       1  UNL1        0.0000
     27 H           2.7876    2.0899    5.9383 H       1  UNL1        0.0000
@<TRIPOS>BOND
     1     6     4    1
     2    14    12    1
     3     7     4    1
     4     4     5    1
     5     4     1    1
     6    13    12    1
     7    10     8    1
     8    12    15    1
     9    12     1    1
    10     1     8    1
    11     1     3    1
    12     8    11    1
    13     8     9    1
    14    21    20    1
    15     3     2    1
    16    19    16    1
    17    20    23    1
    18    20     2    1
    19    20    22    1
    20     2    16    1
    21     2    24    1
    22    17    16    1
    23    16    18    1
    24    24    27    1
    25    24    25    1
    26    24    26    1
