@<TRIPOS>MOLECULE
3
 27 26 0 0 0
SMALL
GASTEIGER

@<TRIPOS>ATOM
      1 SI          0.8476    4.2456   29.2734 Si      1  UNL1        0.0000
      2 SI         -1.7594    3.7873   27.7470 Si      1  UNL1        0.0000
      3 N          -0.0517    3.6757   27.9291 N.3     1  UNL1        0.0000
      4 C           0.4498    3.4901   30.9889 C.3     1  UNL1        0.0000
      5 C           0.7796    6.1418   29.5768 C.3     1  UNL1        0.0000
      6 C           2.6331    3.7647   28.7423 C.3     1  UNL1        0.0000
      7 C          -2.6881    3.6549   29.4140 C.3     1  UNL1        0.0000
      8 C          -2.3577    2.2961   26.6823 C.3     1  UNL1        0.0000
      9 C          -2.3500    5.4219   26.9317 C.3     1  UNL1        0.0000
     10 H           1.3145    3.5268   31.6440 H       1  UNL1        0.0000
     11 H          -0.3462    4.0464   31.4713 H       1  UNL1        0.0000
     12 H           0.1324    2.4571   30.9215 H       1  UNL1        0.0000
     13 H           1.3002    6.4026   30.4928 H       1  UNL1        0.0000
     14 H          -0.2497    6.4681   29.6850 H       1  UNL1        0.0000
     15 H           1.2225    6.7174   28.7716 H       1  UNL1        0.0000
     16 H           3.3074    3.6940   29.5917 H       1  UNL1        0.0000
     17 H           2.6099    2.7895   28.2397 H       1  UNL1        0.0000
     18 H           3.0425    4.5034   28.0527 H       1  UNL1        0.0000
     19 H          -3.7604    3.5954   29.2629 H       1  UNL1        0.0000
     20 H          -2.4913    4.5271   30.0257 H       1  UNL1        0.0000
     21 H          -2.3796    2.7828   29.9791 H       1  UNL1        0.0000
     22 H          -2.9316    2.6366   25.8260 H       1  UNL1        0.0000
     23 H          -2.9848    1.6168   27.2537 H       1  UNL1        0.0000
     24 H          -1.4857    1.7594   26.3059 H       1  UNL1        0.0000
     25 H          -3.4310    5.5075   26.9778 H       1  UNL1        0.0000
     26 H          -1.9314    6.2825   27.4441 H       1  UNL1        0.0000
     27 H          -2.0569    5.4793   25.8884 H       1  UNL1        0.0000
@<TRIPOS>BOND
     1    22     8    1
     2    27     9    1
     3    24     8    1
     4     8    23    1
     5     8     2    1
     6     9    25    1
     7     9    26    1
     8     9     2    1
     9     2     3    1
    10     2     7    1
    11     3     1    1
    12    18     6    1
    13    17     6    1
    14     6     1    1
    15     6    16    1
    16    15     5    1
    17    19     7    1
    18     1     5    1
    19     1     4    1
    20     7    21    1
    21     7    20    1
    22     5    14    1
    23     5    13    1
    24    12     4    1
    25     4    11    1
    26     4    10    1
