@<TRIPOS>MOLECULE
3
 27 26 0 0 0
SMALL
GASTEIGER

@<TRIPOS>ATOM
      1 SI          4.3112    2.8520   25.5925 Si      1  UNL1        0.0000
      2 SI          2.5803    5.2450   24.9339 Si      1  UNL1        0.0000
      3 N           2.8064    3.6748   25.6215 N.3     1  UNL1        0.0000
      4 C           5.1232    2.7496   23.8560 C.3     1  UNL1        0.0000
      5 C           3.9628    1.0776   26.2276 C.3     1  UNL1        0.0000
      6 C           5.6938    3.5452   26.7340 C.3     1  UNL1        0.0000
      7 C           4.1170    6.3726   25.1311 C.3     1  UNL1        0.0000
      8 C           1.1730    6.1206   25.9025 C.3     1  UNL1        0.0000
      9 C           2.2139    5.2162   23.0476 C.3     1  UNL1        0.0000
     10 H           5.9594    2.0575   23.8512 H       1  UNL1        0.0000
     11 H           5.5060    3.7228   23.5685 H       1  UNL1        0.0000
     12 H           4.4284    2.4367   23.0839 H       1  UNL1        0.0000
     13 H           4.7233    0.3849   25.8800 H       1  UNL1        0.0000
     14 H           3.9645    1.0241   27.3139 H       1  UNL1        0.0000
     15 H           2.9986    0.7215   25.8713 H       1  UNL1        0.0000
     16 H           6.5732    2.9099   26.6886 H       1  UNL1        0.0000
     17 H           5.3894    3.6042   27.7743 H       1  UNL1        0.0000
     18 H           5.9971    4.5385   26.4242 H       1  UNL1        0.0000
     19 H           3.9143    7.3689   24.7544 H       1  UNL1        0.0000
     20 H           4.4205    6.4693   26.1680 H       1  UNL1        0.0000
     21 H           4.9596    5.9788   24.5757 H       1  UNL1        0.0000
     22 H           0.3941    6.4551   25.2241 H       1  UNL1        0.0000
     23 H           1.5374    6.9982   26.4291 H       1  UNL1        0.0000
     24 H           0.7152    5.4427   26.6286 H       1  UNL1        0.0000
     25 H           2.2505    6.2207   22.6380 H       1  UNL1        0.0000
     26 H           2.9497    4.6207   22.5163 H       1  UNL1        0.0000
     27 H           1.2310    4.8089   22.8334 H       1  UNL1        0.0000
@<TRIPOS>BOND
     1    26     9    1
     2    25     9    1
     3    27     9    1
     4     9     2    1
     5    12     4    1
     6    11     4    1
     7    10     4    1
     8     4     1    1
     9    21     7    1
    10    19     7    1
    11     2     7    1
    12     2     3    1
    13     2     8    1
    14     7    20    1
    15    22     8    1
    16     1     3    1
    17     1     5    1
    18     1     6    1
    19    15     5    1
    20    13     5    1
    21     8    23    1
    22     8    24    1
    23     5    14    1
    24    18     6    1
    25    16     6    1
    26     6    17    1
