@<TRIPOS>MOLECULE
1
 11 11 0 0 0
SMALL
GASTEIGER

@<TRIPOS>ATOM
      1 N           6.3915    3.0456    1.8784 N.pl3   1  UNL1       -0.2487
      2 C           6.3827    4.1390    2.6851 C.3     1  UNL1        0.0840
      3 H           5.5918    4.8509    2.4812 H       1  UNL1        0.0584
      4 C           7.2992    4.3469    3.6836 C.2     1  UNL1       -0.0600
      5 H           7.2383    5.2410    4.2842 H       1  UNL1        0.0592
      6 C           8.3017    3.4023    3.9183 C.2     1  UNL1       -0.0626
      7 H           9.0355    3.5456    4.6933 H       1  UNL1        0.0615
      8 C           8.3017    2.2626    3.1226 C.2     1  UNL1       -0.0466
      9 H           9.0350    1.4847    3.2725 H       1  UNL1        0.0630
     10 C           7.3526    2.1166    2.1369 C.2     1  UNL1        0.0121
     11 H           7.3019    1.2041    1.5432 H       1  UNL1        0.0797
@<TRIPOS>BOND
     1    11    10    1
     2     1    10    1
     3     1     2    1
     4    10     8    2
     5     3     2    1
     6     2     4    1
     7     8     9    1
     8     8     6    1
     9     4     6    2
    10     4     5    1
    11     6     7    1
