@<TRIPOS>MOLECULE
1
 11 11 0 0 0
SMALL
GASTEIGER

@<TRIPOS>ATOM
      1 N           7.0722    3.7723   -0.4216 N.pl3   1  UNL1       -0.2487
      2 C           8.1659    2.9854   -0.6173 C.3     1  UNL1        0.0840
      3 H           7.9694    1.9187   -0.7240 H       1  UNL1        0.0584
      4 C           9.4434    3.4813   -0.7422 C.2     1  UNL1       -0.0600
      5 H          10.2649    2.7983   -0.8964 H       1  UNL1        0.0592
      6 C           9.6616    4.8526   -0.6772 C.2     1  UNL1       -0.0626
      7 H          10.6511    5.2681   -0.7662 H       1  UNL1        0.0615
      8 C           8.5421    5.6717   -0.5095 C.2     1  UNL1       -0.0466
      9 H           8.6496    6.7445   -0.4724 H       1  UNL1        0.0630
     10 C           7.2956    5.1124   -0.3931 C.2     1  UNL1        0.0121
     11 H           6.4081    5.7210   -0.2660 H       1  UNL1        0.0797
@<TRIPOS>BOND
     1     5     4    1
     2     7     6    1
     3     4     6    2
     4     4     2    1
     5     3     2    1
     6     6     8    1
     7     2     1    1
     8     8     9    1
     9     8    10    2
    10     1    10    1
    11    10    11    1
