@<TRIPOS>MOLECULE
1
 10 9 0 0 0
SMALL
GASTEIGER

@<TRIPOS>ATOM
      1 N          14.2379   14.1828   10.2179 N.3     1  UNL1       -0.3220
      2 H          14.2766   14.4451    9.2295 H       1  UNL1        0.1213
      3 C          15.3992   14.7681   10.8795 C.3     1  UNL1       -0.0161
      4 H          15.3491   14.5581   11.9497 H       1  UNL1        0.0388
      5 H          15.4121   15.8474   10.7297 H       1  UNL1        0.0388
      6 H          16.3425   14.3572   10.4943 H       1  UNL1        0.0388
      7 C          14.2965   12.7219   10.2800 C.3     1  UNL1       -0.0161
      8 H          15.2190   12.3314    9.8296 H       1  UNL1        0.0388
      9 H          13.4254   12.3208    9.7602 H       1  UNL1        0.0388
     10 H          14.2533   12.4054   11.3217 H       1  UNL1        0.0388
@<TRIPOS>BOND
     1     2     1    1
     2     9     7    1
     3     8     7    1
     4     1     7    1
     5     1     3    1
     6     7    10    1
     7     6     3    1
     8     5     3    1
     9     3     4    1
