@<TRIPOS>MOLECULE
1
 9 8 0 0 0
SMALL
GASTEIGER

@<TRIPOS>ATOM
      1 N           9.9972   15.6130   10.6009 N.3     1  UNL1       -0.2469
      2 C           9.6781   16.5475   11.6635 C.3     1  UNL1        0.0021
      3 H          10.0190   17.5774   11.4423 H       1  UNL1        0.0405
      4 H          10.1239   16.2238   12.6073 H       1  UNL1        0.0405
      5 H           8.5862   16.5985   11.8095 H       1  UNL1        0.0405
      6 C           9.3763   16.0564    9.3710 C.3     1  UNL1        0.0021
      7 H           8.2787   16.0891    9.4786 H       1  UNL1        0.0405
      8 H           9.6200   15.3635    8.5639 H       1  UNL1        0.0405
      9 H           9.6968   17.0764    9.0782 H       1  UNL1        0.0405
@<TRIPOS>BOND
     1     8     6    1
     2     9     6    1
     3     6     7    1
     4     6     1    1
     5     1     2    1
     6     3     2    1
     7     2     5    1
     8     2     4    1
