@<TRIPOS>MOLECULE
1
 9 8 0 0 0
SMALL
GASTEIGER

@<TRIPOS>ATOM
      1 N          11.5091   13.2906    9.1476 N.3     1  UNL1       -0.2469
      2 C          10.4893   12.3617    9.5785 C.3     1  UNL1        0.0021
      3 H           9.4650   12.7371    9.4004 H       1  UNL1        0.0405
      4 H          10.6141   12.1660   10.6402 H       1  UNL1        0.0405
      5 H          10.5852   11.4071    9.0345 H       1  UNL1        0.0405
      6 C          11.4630   13.4123    7.7092 C.3     1  UNL1        0.0021
      7 H          11.7331   12.4532    7.2327 H       1  UNL1        0.0405
      8 H          12.1680   14.1705    7.3779 H       1  UNL1        0.0405
      9 H          10.4598   13.6768    7.3285 H       1  UNL1        0.0405
@<TRIPOS>BOND
     1     7     6    1
     2     9     6    1
     3     8     6    1
     4     6     1    1
     5     5     2    1
     6     1     2    1
     7     3     2    1
     8     2     4    1
