@<TRIPOS>MOLECULE
2
 27 26 0 0 0
SMALL
GASTEIGER

@<TRIPOS>ATOM
      1 SI         -2.0517    2.4689    0.4266 Si      1  UNL1        0.0000
      2 N          -1.5280    3.9724    1.0897 N.3     1  UNL1        0.0000
      3 C          -1.1365    1.1187    1.4556 C.3     1  UNL1        0.0000
      4 H          -0.4177    0.5838    0.8435 H       1  UNL1        0.0000
      5 H          -1.8317    0.3860    1.8528 H       1  UNL1        0.0000
      6 H          -0.5934    1.5626    2.3071 H       1  UNL1        0.0000
      7 C          -3.9343    2.1371    0.5523 C.3     1  UNL1        0.0000
      8 H          -4.3434    2.3773    1.5277 H       1  UNL1        0.0000
      9 H          -4.1634    1.0962    0.3469 H       1  UNL1        0.0000
     10 H          -4.4671    2.7371   -0.1769 H       1  UNL1        0.0000
     11 C          -1.6370    2.1814   -1.4188 C.3     1  UNL1        0.0000
     12 H          -2.3371    2.7189   -2.0486 H       1  UNL1        0.0000
     13 H          -1.7039    1.1298   -1.6792 H       1  UNL1        0.0000
     14 H          -0.6414    2.5230   -1.6792 H       1  UNL1        0.0000
     15 SI         -2.0523    5.4759    0.4269 Si      1  UNL1        0.0000
     16 C          -1.1372    6.8262    1.4556 C.3     1  UNL1        0.0000
     17 H          -0.4185    7.3611    0.8435 H       1  UNL1        0.0000
     18 H          -1.8324    7.5590    1.8527 H       1  UNL1        0.0000
     19 H          -0.5940    6.3826    2.3072 H       1  UNL1        0.0000
     20 C          -3.9350    5.8069    0.5534 C.3     1  UNL1        0.0000
     21 H          -4.3440    5.5645    1.5283 H       1  UNL1        0.0000
     22 H          -4.1646    6.8481    0.3500 H       1  UNL1        0.0000
     23 H          -4.4677    5.2082   -0.1771 H       1  UNL1        0.0000
     24 C          -1.6384    5.7638   -1.4186 C.3     1  UNL1        0.0000
     25 H          -2.3377    5.2252   -2.0482 H       1  UNL1        0.0000
     26 H          -1.7069    6.8153   -1.6790 H       1  UNL1        0.0000
     27 H          -0.6422    5.4238   -1.6792 H       1  UNL1        0.0000
@<TRIPOS>BOND
     1    12    11    1
     2    25    24    1
     3    14    11    1
     4    13    11    1
     5    27    24    1
     6    26    24    1
     7    11     1    1
     8    24    15    1
     9    23    20    1
    10    10     7    1
    11     9     7    1
    12    22    20    1
    13     1     7    1
    14     1     2    1
    15     1     3    1
    16    15    20    1
    17    15     2    1
    18    15    16    1
    19     7     8    1
    20    20    21    1
    21    17    16    1
    22     4     3    1
    23     3     5    1
    24     3     6    1
    25    16    18    1
    26    16    19    1
