@<TRIPOS>MOLECULE
1
 11 11 0 0 0
SMALL
GASTEIGER

@<TRIPOS>ATOM
      1 N           8.3187   10.2870    1.3845 N.pl3   1  UNL1       -0.2487
      2 C           8.0385   10.8130    0.1996 C.3     1  UNL1        0.0840
      3 C           8.0860   10.0917   -0.9813 C.2     1  UNL1       -0.0600
      4 C           8.4430    8.7538   -0.9277 C.2     1  UNL1       -0.0626
      5 C           8.7350    8.2013    0.3078 C.2     1  UNL1       -0.0466
      6 C           8.6599    9.0046    1.4351 C.2     1  UNL1        0.0121
      7 H           7.7630   11.8602    0.1955 H       1  UNL1        0.0584
      8 H           7.8484   10.5690   -1.9197 H       1  UNL1        0.0592
      9 H           8.4916    8.1584   -1.8275 H       1  UNL1        0.0615
     10 H           9.0175    7.1649    0.4035 H       1  UNL1        0.0630
     11 H           8.8832    8.5978    2.4145 H       1  UNL1        0.0797
@<TRIPOS>BOND
     1     8     3    1
     2     9     4    1
     3     3     4    2
     4     3     2    1
     5     4     5    1
     6     7     2    1
     7     2     1    1
     8     5    10    1
     9     5     6    2
    10     1     6    1
    11     6    11    1
