@<TRIPOS>MOLECULE
3
 27 26 0 0 0
SMALL
GASTEIGER

@<TRIPOS>ATOM
      1 SI         -2.9705    4.8672    5.5112 Si      1  UNL1        0.0000
      2 SI         -3.4785    3.2624    3.0517 Si      1  UNL1        0.0000
      3 N          -2.3526    3.9372    4.1846 N.3     1  UNL1        0.0000
      4 C          -1.5457    5.8967    6.2775 C.3     1  UNL1        0.0000
      5 C          -3.7097    3.7843    6.9077 C.3     1  UNL1        0.0000
      6 C          -4.3209    6.1297    5.0192 C.3     1  UNL1        0.0000
      7 C          -4.9924    2.4183    3.8611 C.3     1  UNL1        0.0000
      8 C          -2.6028    1.8966    2.0295 C.3     1  UNL1        0.0000
      9 C          -4.1634    4.5536    1.8136 C.3     1  UNL1        0.0000
     10 H          -1.0783    5.3693    7.1012 H       1  UNL1        0.0000
     11 H          -0.7701    6.1433    5.5548 H       1  UNL1        0.0000
     12 H          -1.9255    6.8331    6.6740 H       1  UNL1        0.0000
     13 H          -3.9096    4.3802    7.7925 H       1  UNL1        0.0000
     14 H          -4.6473    3.3361    6.6000 H       1  UNL1        0.0000
     15 H          -3.0422    2.9788    7.1985 H       1  UNL1        0.0000
     16 H          -4.5898    6.7614    5.8599 H       1  UNL1        0.0000
     17 H          -3.9952    6.7762    4.2109 H       1  UNL1        0.0000
     18 H          -5.2210    5.6226    4.6916 H       1  UNL1        0.0000
     19 H          -5.6181    3.1480    4.3617 H       1  UNL1        0.0000
     20 H          -5.6049    1.9188    3.1170 H       1  UNL1        0.0000
     21 H          -4.6974    1.6779    4.5972 H       1  UNL1        0.0000
     22 H          -3.3087    1.1205    1.7510 H       1  UNL1        0.0000
     23 H          -2.1910    2.2964    1.1099 H       1  UNL1        0.0000
     24 H          -1.7943    1.4158    2.5771 H       1  UNL1        0.0000
     25 H          -4.8505    5.2359    2.3005 H       1  UNL1        0.0000
     26 H          -3.3745    5.1493    1.3644 H       1  UNL1        0.0000
     27 H          -4.7050    4.0665    1.0091 H       1  UNL1        0.0000
@<TRIPOS>BOND
     1    27     9    1
     2    23     8    1
     3    26     9    1
     4    22     8    1
     5     9    25    1
     6     9     2    1
     7     8    24    1
     8     8     2    1
     9     2     7    1
    10     2     3    1
    11    20     7    1
    12     7    19    1
    13     7    21    1
    14     3     1    1
    15    17     6    1
    16    18     6    1
    17     6     1    1
    18     6    16    1
    19     1     4    1
    20     1     5    1
    21    11     4    1
    22     4    12    1
    23     4    10    1
    24    14     5    1
    25     5    15    1
    26     5    13    1
