@<TRIPOS>MOLECULE
3
 27 26 0 0 0
SMALL
GASTEIGER

@<TRIPOS>ATOM
      1 SI         11.3049    3.8372    2.4018 Si      1  UNL1        0.0000
      2 SI         14.2619    3.3804    2.1104 Si      1  UNL1        0.0000
      3 N          12.9293    4.1890    2.8643 N.3     1  UNL1        0.0000
      4 C          10.7865    4.5898    0.7084 C.3     1  UNL1        0.0000
      5 C          10.1777    4.5383    3.7921 C.3     1  UNL1        0.0000
      6 C          10.8263    1.9937    2.2185 C.3     1  UNL1        0.0000
      7 C          14.4458    3.7754    0.2438 C.3     1  UNL1        0.0000
      8 C          15.8430    3.9649    3.0211 C.3     1  UNL1        0.0000
      9 C          14.2663    1.4719    2.2338 C.3     1  UNL1        0.0000
     10 H          11.3013    5.5168    0.4800 H       1  UNL1        0.0000
     11 H           9.7188    4.7830    0.6661 H       1  UNL1        0.0000
     12 H          11.0177    3.8923   -0.0904 H       1  UNL1        0.0000
     13 H          10.5204    5.5100    4.1514 H       1  UNL1        0.0000
     14 H           9.1575    4.6587    3.4412 H       1  UNL1        0.0000
     15 H          10.1459    3.8659    4.6445 H       1  UNL1        0.0000
     16 H           9.7470    1.8804    2.1840 H       1  UNL1        0.0000
     17 H          11.2250    1.5868    1.2960 H       1  UNL1        0.0000
     18 H          11.1959    1.3811    3.0313 H       1  UNL1        0.0000
     19 H          14.6276    4.8295    0.0651 H       1  UNL1        0.0000
     20 H          13.5453    3.5014   -0.2948 H       1  UNL1        0.0000
     21 H          15.2698    3.2196   -0.1928 H       1  UNL1        0.0000
     22 H          15.7461    5.0008    3.3639 H       1  UNL1        0.0000
     23 H          16.7092    3.9155    2.3686 H       1  UNL1        0.0000
     24 H          16.0506    3.3316    3.8778 H       1  UNL1        0.0000
     25 H          15.2297    1.0757    1.9282 H       1  UNL1        0.0000
     26 H          14.0834    1.1348    3.2471 H       1  UNL1        0.0000
     27 H          13.5128    1.0296    1.5937 H       1  UNL1        0.0000
@<TRIPOS>BOND
     1    20     7    1
     2    21     7    1
     3    12     4    1
     4    19     7    1
     5     7     2    1
     6    10     4    1
     7    11     4    1
     8     4     1    1
     9    17     6    1
    10    27     9    1
    11    25     9    1
    12     2     9    1
    13     2     3    1
    14     2     8    1
    15    16     6    1
    16     6     1    1
    17     6    18    1
    18     9    26    1
    19    23     8    1
    20     1     3    1
    21     1     5    1
    22     8    22    1
    23     8    24    1
    24    14     5    1
    25     5    13    1
    26     5    15    1
