@<TRIPOS>MOLECULE
3
 27 26 0 0 0
SMALL
GASTEIGER

@<TRIPOS>ATOM
      1 SI         16.2212    7.9315    4.8569 Si      1  UNL1        0.0000
      2 SI         15.1879    7.9486    2.0280 Si      1  UNL1        0.0000
      3 N          15.0324    7.4858    3.6889 N.3     1  UNL1        0.0000
      4 C          15.4166    7.6496    6.5783 C.3     1  UNL1        0.0000
      5 C          17.8598    6.9284    4.7453 C.3     1  UNL1        0.0000
      6 C          16.8257    9.7470    4.8422 C.3     1  UNL1        0.0000
      7 C          16.6957    7.1563    1.1487 C.3     1  UNL1        0.0000
      8 C          15.3206    9.8250    1.6821 C.3     1  UNL1        0.0000
      9 C          13.5856    7.3705    1.1506 C.3     1  UNL1        0.0000
     10 H          14.6341    8.3790    6.7698 H       1  UNL1        0.0000
     11 H          14.9741    6.6575    6.6683 H       1  UNL1        0.0000
     12 H          16.1519    7.7517    7.3703 H       1  UNL1        0.0000
     13 H          17.7177    5.9275    4.3520 H       1  UNL1        0.0000
     14 H          18.3417    6.8396    5.7144 H       1  UNL1        0.0000
     15 H          18.5579    7.4337    4.0853 H       1  UNL1        0.0000
     16 H          17.3799    9.9721    5.7484 H       1  UNL1        0.0000
     17 H          17.4909    9.9195    4.0035 H       1  UNL1        0.0000
     18 H          16.0146   10.4605    4.7676 H       1  UNL1        0.0000
     19 H          17.6133    7.3957    1.6750 H       1  UNL1        0.0000
     20 H          16.7944    7.5279    0.1335 H       1  UNL1        0.0000
     21 H          16.6178    6.0758    1.0983 H       1  UNL1        0.0000
     22 H          16.2687   10.2267    2.0178 H       1  UNL1        0.0000
     23 H          15.2417   10.0178    0.6166 H       1  UNL1        0.0000
     24 H          14.5300   10.3810    2.1715 H       1  UNL1        0.0000
     25 H          13.7633    7.1867    0.0956 H       1  UNL1        0.0000
     26 H          12.8128    8.1299    1.2174 H       1  UNL1        0.0000
     27 H          13.2047    6.4416    1.5885 H       1  UNL1        0.0000
@<TRIPOS>BOND
     1    25     9    1
     2    20     7    1
     3    23     8    1
     4    21     7    1
     5     7    19    1
     6     7     2    1
     7     9    26    1
     8     9    27    1
     9     9     2    1
    10     8    22    1
    11     8     2    1
    12     8    24    1
    13     2     3    1
    14     3     1    1
    15    17     6    1
    16    15     5    1
    17    13     5    1
    18     5     1    1
    19     5    14    1
    20    18     6    1
    21     6     1    1
    22     6    16    1
    23     1     4    1
    24     4    11    1
    25     4    10    1
    26     4    12    1
