@<TRIPOS>MOLECULE
3
 27 26 0 0 0
SMALL
GASTEIGER

@<TRIPOS>ATOM
      1 SI          0.7888    0.9764   14.8775 Si      1  UNL1        0.0000
      2 SI         -1.2964    1.1850   17.1032 Si      1  UNL1        0.0000
      3 N          -0.3019    1.8834   15.8702 N.3     1  UNL1        0.0000
      4 C           0.3450    1.1582   13.0147 C.3     1  UNL1        0.0000
      5 C           0.7749   -0.9123   15.1865 C.3     1  UNL1        0.0000
      6 C           2.6139    1.5123   15.0965 C.3     1  UNL1        0.0000
      7 C          -2.5970    2.4653   17.6956 C.3     1  UNL1        0.0000
      8 C          -0.3186    0.5677   18.6322 C.3     1  UNL1        0.0000
      9 C          -2.3171   -0.3191   16.4694 C.3     1  UNL1        0.0000
     10 H          -0.7227    1.0667   12.8394 H       1  UNL1        0.0000
     11 H           0.8366    0.3814   12.4375 H       1  UNL1        0.0000
     12 H           0.6763    2.1132   12.6203 H       1  UNL1        0.0000
     13 H           0.8700   -1.1435   16.2408 H       1  UNL1        0.0000
     14 H          -0.1376   -1.3748   14.8289 H       1  UNL1        0.0000
     15 H           1.6049   -1.3848   14.6712 H       1  UNL1        0.0000
     16 H           3.0263    1.1303   16.0250 H       1  UNL1        0.0000
     17 H           2.7142    2.5918   15.1071 H       1  UNL1        0.0000
     18 H           3.2228    1.1246   14.2850 H       1  UNL1        0.0000
     19 H          -3.5050    2.4263   17.0988 H       1  UNL1        0.0000
     20 H          -2.1954    3.4766   17.6579 H       1  UNL1        0.0000
     21 H          -2.8846    2.2563   18.7219 H       1  UNL1        0.0000
     22 H           0.1295    1.3892   19.1804 H       1  UNL1        0.0000
     23 H          -0.9675    0.0246   19.3130 H       1  UNL1        0.0000
     24 H           0.4816   -0.1034   18.3374 H       1  UNL1        0.0000
     25 H          -3.2769   -0.3797   16.9730 H       1  UNL1        0.0000
     26 H          -1.7920   -1.2467   16.6622 H       1  UNL1        0.0000
     27 H          -2.5076   -0.2712   15.4015 H       1  UNL1        0.0000
@<TRIPOS>BOND
     1    11     4    1
     2    12     4    1
     3    10     4    1
     4     4     1    1
     5    18     6    1
     6    15     5    1
     7    14     5    1
     8     1     6    1
     9     1     5    1
    10     1     3    1
    11     6    17    1
    12     6    16    1
    13     5    13    1
    14    27     9    1
    15     3     2    1
    16     9    26    1
    17     9    25    1
    18     9     2    1
    19    19     7    1
    20     2     7    1
    21     2     8    1
    22    20     7    1
    23     7    21    1
    24    24     8    1
    25     8    22    1
    26     8    23    1
