@<TRIPOS>MOLECULE
3
 27 26 0 0 0
SMALL
GASTEIGER

@<TRIPOS>ATOM
      1 SI          0.6304    4.8120   18.4204 Si      1  UNL1        0.0000
      2 SI         -1.4232    6.4570   16.9578 Si      1  UNL1        0.0000
      3 N          -0.4698    5.0203   17.0873 N.3     1  UNL1        0.0000
      4 C           1.9163    3.4636   18.0037 C.3     1  UNL1        0.0000
      5 C           1.6136    6.4156   18.7922 C.3     1  UNL1        0.0000
      6 C          -0.2615    4.3243   20.0490 C.3     1  UNL1        0.0000
      7 C          -2.1895    7.0327   18.6160 C.3     1  UNL1        0.0000
      8 C          -0.4523    7.9504   16.2459 C.3     1  UNL1        0.0000
      9 C          -2.9264    6.1559   15.8080 C.3     1  UNL1        0.0000
     10 H           2.7398    3.8749   17.4280 H       1  UNL1        0.0000
     11 H           1.4613    2.6672   17.4226 H       1  UNL1        0.0000
     12 H           2.3359    3.0372   18.9098 H       1  UNL1        0.0000
     13 H           2.0799    6.8042   17.8932 H       1  UNL1        0.0000
     14 H           2.3980    6.2281   19.5180 H       1  UNL1        0.0000
     15 H           0.9739    7.1929   19.1944 H       1  UNL1        0.0000
     16 H           0.4614    4.0911   20.8248 H       1  UNL1        0.0000
     17 H          -0.8850    5.1310   20.4177 H       1  UNL1        0.0000
     18 H          -0.8945    3.4542   19.9135 H       1  UNL1        0.0000
     19 H          -1.4221    7.3202   19.3253 H       1  UNL1        0.0000
     20 H          -2.7850    6.2494   19.0735 H       1  UNL1        0.0000
     21 H          -2.8355    7.8921   18.4665 H       1  UNL1        0.0000
     22 H           0.1529    8.4196   17.0133 H       1  UNL1        0.0000
     23 H           0.2145    7.6467   15.4457 H       1  UNL1        0.0000
     24 H          -1.1259    8.7050   15.8512 H       1  UNL1        0.0000
     25 H          -2.6171    5.9932   14.7814 H       1  UNL1        0.0000
     26 H          -3.5796    7.0232   15.8189 H       1  UNL1        0.0000
     27 H          -3.5126    5.3036   16.1397 H       1  UNL1        0.0000
@<TRIPOS>BOND
     1    25     9    1
     2    23     8    1
     3     9    26    1
     4     9    27    1
     5     9     2    1
     6    24     8    1
     7     8     2    1
     8     8    22    1
     9     2     3    1
    10     2     7    1
    11     3     1    1
    12    11     4    1
    13    10     4    1
    14    13     5    1
    15     4     1    1
    16     4    12    1
    17     1     5    1
    18     1     6    1
    19    21     7    1
    20     7    20    1
    21     7    19    1
    22     5    15    1
    23     5    14    1
    24    18     6    1
    25     6    17    1
    26     6    16    1
