@<TRIPOS>MOLECULE
1
 11 11 0 0 0
SMALL
GASTEIGER

@<TRIPOS>ATOM
      1 N          -0.1217   -2.8390    2.6700 N.pl3   1  UNL1       -0.2487
      2 C           0.2324   -2.8930    1.3890 C.3     1  UNL1        0.0840
      3 H          -0.5437   -3.1689    0.6881 H       1  UNL1        0.0584
      4 C           1.5223   -2.6448    0.9530 C.2     1  UNL1       -0.0600
      5 H           1.7555   -2.7033   -0.0979 H       1  UNL1        0.0592
      6 C           2.4940   -2.3244    1.8876 C.2     1  UNL1       -0.0626
      7 H           3.5094   -2.1232    1.5840 H       1  UNL1        0.0615
      8 C           2.1271   -2.2757    3.2247 C.2     1  UNL1       -0.0466
      9 H           2.8475   -2.0387    3.9907 H       1  UNL1        0.0630
     10 C           0.8146   -2.5403    3.5713 C.2     1  UNL1        0.0121
     11 H           0.4937   -2.5176    4.6033 H       1  UNL1        0.0797
@<TRIPOS>BOND
     1     5     4    1
     2     3     2    1
     3     4     2    1
     4     4     6    2
     5     2     1    1
     6     7     6    1
     7     6     8    1
     8     1    10    1
     9     8    10    2
    10     8     9    1
    11    10    11    1
