@<TRIPOS>MOLECULE
1
 14 14 0 0 0
SMALL
GASTEIGER

@<TRIPOS>ATOM
      1 N          -3.1419   -1.6094    1.9330 N.pl3   1  UNL1       -0.3580
      2 H          -2.7758   -1.7308    0.9885 H       1  UNL1        0.1423
      3 H          -4.1329   -1.8727    1.9372 H       1  UNL1        0.1423
      4 C          -2.9817   -0.2642    2.3918 C.ar    1  UNL1        0.0245
      5 C          -3.9188    0.2803    3.2607 C.ar    1  UNL1       -0.0410
      6 H          -4.7778   -0.3048    3.5517 H       1  UNL1        0.0636
      7 C          -3.7356    1.5579    3.7568 C.ar    1  UNL1       -0.0600
      8 H          -4.4654    1.9789    4.4299 H       1  UNL1        0.0618
      9 C          -2.6231    2.2956    3.3880 C.ar    1  UNL1       -0.0616
     10 H          -2.4845    3.2935    3.7722 H       1  UNL1        0.0618
     11 C          -1.6917    1.7534    2.5187 C.ar    1  UNL1       -0.0600
     12 H          -0.8279    2.3285    2.2235 H       1  UNL1        0.0618
     13 C          -1.8671    0.4751    2.0192 C.ar    1  UNL1       -0.0410
     14 H          -1.1404    0.0495    1.3418 H       1  UNL1        0.0636
@<TRIPOS>BOND
     1     2     1    1
     2    14    13    1
     3     1     3    1
     4     1     4    1
     5    13     4   ar
     6    13    11   ar
     7    12    11    1
     8     4     5   ar
     9    11     9   ar
    10     5     6    1
    11     5     7   ar
    12     9     7   ar
    13     9    10    1
    14     7     8    1
