@<TRIPOS>MOLECULE
1
 11 11 0 0 0
SMALL
GASTEIGER

@<TRIPOS>ATOM
      1 N          -1.6794   -4.9607    4.4200 N.pl3   1  UNL1       -0.2487
      2 C          -2.1677   -5.1700    5.6462 C.3     1  UNL1        0.0840
      3 H          -2.7071   -4.3480    6.0965 H       1  UNL1        0.0584
      4 C          -2.0141   -6.3714    6.3130 C.2     1  UNL1       -0.0600
      5 H          -2.4353   -6.4932    7.2977 H       1  UNL1        0.0592
      6 C          -1.3297   -7.4058    5.6932 C.2     1  UNL1       -0.0626
      7 H          -1.2050   -8.3597    6.1809 H       1  UNL1        0.0615
      8 C          -0.8130   -7.1819    4.4264 C.2     1  UNL1       -0.0466
      9 H          -0.2708   -7.9514    3.9008 H       1  UNL1        0.0630
     10 C          -1.0097   -5.9507    3.8288 C.2     1  UNL1        0.0121
     11 H          -0.6314   -5.7575    2.8340 H       1  UNL1        0.0797
@<TRIPOS>BOND
     1    11    10    1
     2    10     1    1
     3    10     8    2
     4     9     8    1
     5     1     2    1
     6     8     6    1
     7     2     3    1
     8     2     4    1
     9     6     7    1
    10     6     4    2
    11     4     5    1
