@<TRIPOS>MOLECULE
3
 27 26 0 0 0
SMALL
GASTEIGER

@<TRIPOS>ATOM
      1 SI         -5.8323    9.1868   12.9829 Si      1  UNL1        0.0000
      2 SI         -4.1428   11.5216   12.4773 Si      1  UNL1        0.0000
      3 N          -4.2813    9.9371   13.1542 N.3     1  UNL1        0.0000
      4 C          -6.2148    7.6647   14.0805 C.3     1  UNL1        0.0000
      5 H          -5.4094    6.9431   14.0939 H       1  UNL1        0.0000
      6 H          -7.0892    7.1604   13.6795 H       1  UNL1        0.0000
      7 H          -6.4421    7.9345   15.1048 H       1  UNL1        0.0000
      8 C          -6.1883    8.5142   11.2146 C.3     1  UNL1        0.0000
      9 H          -5.8617    7.4843   11.1091 H       1  UNL1        0.0000
     10 H          -5.6956    9.1016   10.4499 H       1  UNL1        0.0000
     11 H          -7.2541    8.5376   11.0077 H       1  UNL1        0.0000
     12 C          -7.2865   10.3746   13.3785 C.3     1  UNL1        0.0000
     13 H          -7.1351   10.9004   14.3148 H       1  UNL1        0.0000
     14 H          -8.2269    9.8367   13.4507 H       1  UNL1        0.0000
     15 H          -7.3963   11.1240   12.6036 H       1  UNL1        0.0000
     16 C          -4.8952   12.9126   13.5780 C.3     1  UNL1        0.0000
     17 H          -5.9010   13.1559   13.2535 H       1  UNL1        0.0000
     18 H          -4.3061   13.8233   13.5263 H       1  UNL1        0.0000
     19 H          -4.9582   12.6209   14.6214 H       1  UNL1        0.0000
     20 C          -4.9527   11.7892   10.7586 C.3     1  UNL1        0.0000
     21 H          -4.4785   11.1890    9.9880 H       1  UNL1        0.0000
     22 H          -4.8739   12.8286   10.4540 H       1  UNL1        0.0000
     23 H          -6.0047   11.5319   10.7747 H       1  UNL1        0.0000
     24 C          -2.3142   11.9797   12.1667 C.3     1  UNL1        0.0000
     25 H          -1.7706   11.1602   11.7084 H       1  UNL1        0.0000
     26 H          -1.8058   12.2433   13.0857 H       1  UNL1        0.0000
     27 H          -2.2471   12.8337   11.4993 H       1  UNL1        0.0000
@<TRIPOS>BOND
     1    21    20    1
     2    10     8    1
     3    22    20    1
     4    20    23    1
     5    20     2    1
     6    11     8    1
     7     9     8    1
     8     8     1    1
     9    27    24    1
    10    25    24    1
    11    24     2    1
    12    24    26    1
    13     2     3    1
    14     2    16    1
    15    15    12    1
    16     1     3    1
    17     1    12    1
    18     1     4    1
    19    17    16    1
    20    12    14    1
    21    12    13    1
    22    18    16    1
    23    16    19    1
    24     6     4    1
    25     4     5    1
    26     4     7    1
