@<TRIPOS>MOLECULE
3
 27 26 0 0 0
SMALL
GASTEIGER

@<TRIPOS>ATOM
      1 SI         12.8298    8.6111   11.0026 Si      1  UNL1        0.0000
      2 SI         11.5051    8.0834    8.4468 Si      1  UNL1        0.0000
      3 N          12.7295    7.6298    9.5796 N.3     1  UNL1        0.0000
      4 C          13.8151    7.9253   12.4949 C.3     1  UNL1        0.0000
      5 H          13.2702    7.1653   13.0417 H       1  UNL1        0.0000
      6 H          14.0088    8.7411   13.1853 H       1  UNL1        0.0000
      7 H          14.7741    7.5132   12.2121 H       1  UNL1        0.0000
      8 C          11.1137    8.9996   11.7683 C.3     1  UNL1        0.0000
      9 H          10.5589    9.6912   11.1454 H       1  UNL1        0.0000
     10 H          11.2137    9.4505   12.7509 H       1  UNL1        0.0000
     11 H          10.5076    8.1067   11.8759 H       1  UNL1        0.0000
     12 C          13.6608   10.3243   10.7186 C.3     1  UNL1        0.0000
     13 H          14.7342   10.2747   10.8731 H       1  UNL1        0.0000
     14 H          13.2676   11.0563   11.4178 H       1  UNL1        0.0000
     15 H          13.4834   10.7013    9.7191 H       1  UNL1        0.0000
     16 C          11.8752    7.3747    6.7113 C.3     1  UNL1        0.0000
     17 H          12.9185    7.5031    6.4422 H       1  UNL1        0.0000
     18 H          11.2767    7.8827    5.9610 H       1  UNL1        0.0000
     19 H          11.6440    6.3186    6.6525 H       1  UNL1        0.0000
     20 C           9.7352    7.4953    8.9305 C.3     1  UNL1        0.0000
     21 H           9.7558    6.6440    9.6030 H       1  UNL1        0.0000
     22 H           9.1581    7.2099    8.0564 H       1  UNL1        0.0000
     23 H           9.1925    8.2869    9.4351 H       1  UNL1        0.0000
     24 C          11.3062    9.9621    8.1118 C.3     1  UNL1        0.0000
     25 H          11.1206   10.5081    9.0287 H       1  UNL1        0.0000
     26 H          10.4694   10.1474    7.4447 H       1  UNL1        0.0000
     27 H          12.1907   10.3879    7.6479 H       1  UNL1        0.0000
@<TRIPOS>BOND
     1    18    16    1
     2    17    16    1
     3    19    16    1
     4    16     2    1
     5    26    24    1
     6    27    24    1
     7    22    20    1
     8    24     2    1
     9    24    25    1
    10     2    20    1
    11     2     3    1
    12    20    23    1
    13    20    21    1
    14     3     1    1
    15    15    12    1
    16    12    13    1
    17    12     1    1
    18    12    14    1
    19     1     8    1
    20     1     4    1
    21     9     8    1
    22     8    11    1
    23     8    10    1
    24     7     4    1
    25     4     5    1
    26     4     6    1
