@<TRIPOS>MOLECULE
3
 27 26 0 0 0
SMALL
GASTEIGER

@<TRIPOS>ATOM
      1 SI          7.4116    3.2413   11.1580 Si      1  UNL1        0.0000
      2 SI          8.9814    1.2300    9.6134 Si      1  UNL1        0.0000
      3 N           8.9341    2.7369   10.4824 N.3     1  UNL1        0.0000
      4 C           6.2935    4.0835    9.8467 C.3     1  UNL1        0.0000
      5 H           6.8289    4.7807    9.2086 H       1  UNL1        0.0000
      6 H           5.4851    4.6274   10.3243 H       1  UNL1        0.0000
      7 H           5.8418    3.3405    9.2003 H       1  UNL1        0.0000
      8 C           6.3869    1.8682   11.9918 C.3     1  UNL1        0.0000
      9 H           6.0435    1.1399   11.2665 H       1  UNL1        0.0000
     10 H           5.5082    2.2825   12.4753 H       1  UNL1        0.0000
     11 H           6.9577    1.3365   12.7461 H       1  UNL1        0.0000
     12 C           7.8190    4.5323   12.5241 C.3     1  UNL1        0.0000
     13 H           7.2674    5.4549   12.3771 H       1  UNL1        0.0000
     14 H           8.8908    4.7647   12.5526 H       1  UNL1        0.0000
     15 H           7.5447    4.1483   13.5008 H       1  UNL1        0.0000
     16 C           9.0319   -0.3027   10.7605 C.3     1  UNL1        0.0000
     17 H           8.0408   -0.5240   11.1396 H       1  UNL1        0.0000
     18 H           9.6812   -0.1701   11.6213 H       1  UNL1        0.0000
     19 H           9.3731   -1.1808   10.2212 H       1  UNL1        0.0000
     20 C           7.5212    0.9925    8.4083 C.3     1  UNL1        0.0000
     21 H           6.5812    0.9319    8.9434 H       1  UNL1        0.0000
     22 H           7.6357    0.0684    7.8512 H       1  UNL1        0.0000
     23 H           7.4363    1.7999    7.6875 H       1  UNL1        0.0000
     24 C          10.5670    1.2185    8.5279 C.3     1  UNL1        0.0000
     25 H          10.3150    1.0108    7.4930 H       1  UNL1        0.0000
     26 H          11.2536    0.4419    8.8460 H       1  UNL1        0.0000
     27 H          11.0921    2.1724    8.5602 H       1  UNL1        0.0000
@<TRIPOS>BOND
     1    25    24    1
     2    23    20    1
     3    22    20    1
     4    20    21    1
     5    20     2    1
     6    24    27    1
     7    24    26    1
     8    24     2    1
     9     7     4    1
    10     5     4    1
    11     2     3    1
    12     2    16    1
    13     4     6    1
    14     4     1    1
    15    19    16    1
    16     3     1    1
    17    16    17    1
    18    16    18    1
    19     1     8    1
    20     1    12    1
    21     9     8    1
    22     8    10    1
    23     8    11    1
    24    13    12    1
    25    12    14    1
    26    12    15    1
