@<TRIPOS>MOLECULE
3
 27 26 0 0 0
SMALL
GASTEIGER

@<TRIPOS>ATOM
      1 SI         11.2844    3.4606   14.3488 Si      1  UNL1        0.0000
      2 SI         13.3798    4.9626   12.7883 Si      1  UNL1        0.0000
      3 N          11.8705    4.1199   12.8484 N.3     1  UNL1        0.0000
      4 C          10.0705    2.0471   13.8799 C.3     1  UNL1        0.0000
      5 H           9.7611    2.1015   12.8308 H       1  UNL1        0.0000
      6 H           9.1746    2.0911   14.4895 H       1  UNL1        0.0000
      7 H          10.5208    1.0738   14.0491 H       1  UNL1        0.0000
      8 C          10.3764    4.7746   15.4070 C.3     1  UNL1        0.0000
      9 H          11.0491    5.5816   15.6767 H       1  UNL1        0.0000
     10 H          10.0172    4.3320   16.3303 H       1  UNL1        0.0000
     11 H           9.5197    5.2111   14.9032 H       1  UNL1        0.0000
     12 C          12.6266    2.7008   15.4705 C.3     1  UNL1        0.0000
     13 H          13.3074    3.4638   15.8295 H       1  UNL1        0.0000
     14 H          13.2148    1.9424   14.9644 H       1  UNL1        0.0000
     15 H          12.1747    2.2348   16.3397 H       1  UNL1        0.0000
     16 C          13.5427    6.3849   14.0517 C.3     1  UNL1        0.0000
     17 H          13.7545    5.9780   15.0337 H       1  UNL1        0.0000
     18 H          12.6435    6.9848   14.1386 H       1  UNL1        0.0000
     19 H          14.3618    7.0487   13.7952 H       1  UNL1        0.0000
     20 C          14.9547    3.8979   13.0090 C.3     1  UNL1        0.0000
     21 H          14.9938    3.4594   13.9987 H       1  UNL1        0.0000
     22 H          15.8434    4.5110   12.8933 H       1  UNL1        0.0000
     23 H          15.0208    3.0907   12.2884 H       1  UNL1        0.0000
     24 C          13.4886    5.6816   10.9994 C.3     1  UNL1        0.0000
     25 H          12.6449    5.3270   10.3870 H       1  UNL1        0.0000
     26 H          14.4094    5.3788   10.5114 H       1  UNL1        0.0000
     27 H          13.4752    6.7665   10.9935 H       1  UNL1        0.0000
@<TRIPOS>BOND
     1    25    24    1
     2    26    24    1
     3    27    24    1
     4    24     2    1
     5    23    20    1
     6     2     3    1
     7     2    20    1
     8     2    16    1
     9     5     4    1
    10     3     1    1
    11    22    20    1
    12    20    21    1
    13    19    16    1
    14     4     7    1
    15     4     1    1
    16     4     6    1
    17    16    18    1
    18    16    17    1
    19     1     8    1
    20     1    12    1
    21    11     8    1
    22    14    12    1
    23     8     9    1
    24     8    10    1
    25    12    13    1
    26    12    15    1
