@<TRIPOS>MOLECULE
3
 27 27 0 0 0
SMALL
GASTEIGER

@<TRIPOS>ATOM
      1 SI          6.3675   11.3793   26.4815 Si      1  UNL1        0.0000
      2 SI          8.9660   12.2380   25.2877 Si      1  UNL1        0.0000
      3 N           7.3258   10.2738   24.1993 N.3     1  UNL1        0.0000
      4 N           7.5538   11.1998   25.1818 N.3     1  UNL1        0.0000
      5 C           5.8246    9.6829   27.1415 C.3     1  UNL1        0.0000
      6 H           5.6550    8.9738   26.3368 H       1  UNL1        0.0000
      7 H           4.8929    9.7712   27.6904 H       1  UNL1        0.0000
      8 H           6.5641    9.2533   27.8099 H       1  UNL1        0.0000
      9 C           7.4836   12.3427   27.6825 C.3     1  UNL1        0.0000
     10 H           6.9160   12.9688   28.3696 H       1  UNL1        0.0000
     11 H           8.0434   11.6385   28.2987 H       1  UNL1        0.0000
     12 C           9.0347   13.4473   23.8225 C.3     1  UNL1        0.0000
     13 H           9.2386   12.9186   22.9008 H       1  UNL1        0.0000
     14 H           9.8135   14.1901   23.9623 H       1  UNL1        0.0000
     15 H           8.0926   13.9732   23.7001 H       1  UNL1        0.0000
     16 C           8.4665   13.1851   26.8669 C.3     1  UNL1        0.0000
     17 H           9.3282   13.4624   27.4728 H       1  UNL1        0.0000
     18 H           7.9818   14.1191   26.5828 H       1  UNL1        0.0000
     19 C           4.8882   12.3786   25.8136 C.3     1  UNL1        0.0000
     20 H           5.1916   13.3690   25.4864 H       1  UNL1        0.0000
     21 H           4.1247   12.4997   26.5756 H       1  UNL1        0.0000
     22 H           4.4273   11.8783   24.9666 H       1  UNL1        0.0000
     23 C          10.5457   11.2003   25.4986 C.3     1  UNL1        0.0000
     24 H          10.5781   10.7199   26.4718 H       1  UNL1        0.0000
     25 H          11.4383   11.8099   25.3991 H       1  UNL1        0.0000
     26 H          10.5775   10.4221   24.7438 H       1  UNL1        0.0000
     27 H           6.3864    9.9114   24.3967 H       1  UNL1        0.0000
@<TRIPOS>BOND
     1    13    12    1
     2    15    12    1
     3    12    14    1
     4    12     2    1
     5     3    27    1
     6     3     4    1
     7    26    23    1
     8    22    19    1
     9     4     2    1
    10     4     1    1
    11     2    23    1
    12     2    16    1
    13    25    23    1
    14    20    19    1
    15    23    24    1
    16    19     1    1
    17    19    21    1
    18     6     5    1
    19     1     5    1
    20     1     9    1
    21    18    16    1
    22    16    17    1
    23    16     9    1
    24     5     7    1
    25     5     8    1
    26     9    11    1
    27     9    10    1
