@<TRIPOS>MOLECULE
3
 27 26 0 0 0
SMALL
GASTEIGER

@<TRIPOS>ATOM
      1 SI          4.1231    3.5726    3.0586 Si      1  UNL1        0.0000
      2 SI          4.7366    4.7099    5.8064 Si      1  UNL1        0.0000
      3 N           5.1770    3.7432    4.4240 N.3     1  UNL1        0.0000
      4 C           5.1364    3.2866    1.4516 C.3     1  UNL1        0.0000
      5 C           2.9087    2.1096    3.3020 C.3     1  UNL1        0.0000
      6 C           3.1170    5.1511    2.6713 C.3     1  UNL1        0.0000
      7 C           5.8235    4.1973    7.2947 C.3     1  UNL1        0.0000
      8 C           2.9214    4.3977    6.3303 C.3     1  UNL1        0.0000
      9 C           5.0123    6.5747    5.4700 C.3     1  UNL1        0.0000
     10 H           1.9906    2.4494    3.7700 H       1  UNL1        0.0000
     11 H           3.7659    5.9734    2.3890 H       1  UNL1        0.0000
     12 H           2.4417    4.9680    1.8421 H       1  UNL1        0.0000
     13 H           2.5206    5.4749    3.5151 H       1  UNL1        0.0000
     14 H           2.7329    3.3316    6.4139 H       1  UNL1        0.0000
     15 H           2.2120    4.8052    5.6194 H       1  UNL1        0.0000
     16 H           2.7166    4.8492    7.2958 H       1  UNL1        0.0000
     17 H           5.9404    5.0199    7.9945 H       1  UNL1        0.0000
     18 H           2.6417    1.6426    2.3586 H       1  UNL1        0.0000
     19 H           3.3406    1.3506    3.9499 H       1  UNL1        0.0000
     20 H           4.4083    6.9227    4.6407 H       1  UNL1        0.0000
     21 H           4.7414    7.1597    6.3423 H       1  UNL1        0.0000
     22 H           6.0505    6.7877    5.2364 H       1  UNL1        0.0000
     23 H           5.3620    3.3710    7.8301 H       1  UNL1        0.0000
     24 H           5.4299    2.2510    1.3243 H       1  UNL1        0.0000
     25 H           4.5248    3.5532    0.5954 H       1  UNL1        0.0000
     26 H           6.0262    3.9083    1.4178 H       1  UNL1        0.0000
     27 H           6.8129    3.8786    6.9709 H       1  UNL1        0.0000
@<TRIPOS>BOND
     1    25     4    1
     2    24     4    1
     3    26     4    1
     4     4     1    1
     5    12     6    1
     6    18     5    1
     7    11     6    1
     8     6     1    1
     9     6    13    1
    10     1     5    1
    11     1     3    1
    12     5    10    1
    13     5    19    1
    14     3     2    1
    15    20     9    1
    16    22     9    1
    17     9     2    1
    18     9    21    1
    19    15     8    1
    20     2     8    1
    21     2     7    1
    22     8    14    1
    23     8    16    1
    24    27     7    1
    25     7    23    1
    26     7    17    1
