@<TRIPOS>MOLECULE
3
 27 26 0 0 0
SMALL
GASTEIGER

@<TRIPOS>ATOM
      1 SI          8.7861    1.4020    6.5163 Si      1  UNL1        0.0000
      2 SI          9.1018    4.0573    4.9897 Si      1  UNL1        0.0000
      3 N           8.2203    2.6279    5.4193 N.3     1  UNL1        0.0000
      4 C           9.3430    5.2624    6.4597 C.3     1  UNL1        0.0000
      5 C          10.8343    3.6800    4.2589 C.3     1  UNL1        0.0000
      6 C           8.1363    4.9709    3.6109 C.3     1  UNL1        0.0000
      7 C           7.8884    1.4729    8.2040 C.3     1  UNL1        0.0000
      8 C          10.6543    1.5364    6.8933 C.3     1  UNL1        0.0000
      9 C           8.5290   -0.3471    5.7759 C.3     1  UNL1        0.0000
     10 H           9.0418   -1.0824    6.3879 H       1  UNL1        0.0000
     11 H           7.4753   -0.6065    5.7666 H       1  UNL1        0.0000
     12 H           8.9232   -0.4335    4.7674 H       1  UNL1        0.0000
     13 H          11.2618    1.3321    6.0198 H       1  UNL1        0.0000
     14 H          10.9280    0.8176    7.6577 H       1  UNL1        0.0000
     15 H          10.9184    2.5213    7.2592 H       1  UNL1        0.0000
     16 H          11.1534    4.4913    3.6124 H       1  UNL1        0.0000
     17 H          10.8504    2.7663    3.6729 H       1  UNL1        0.0000
     18 H          11.5750    3.5797    5.0424 H       1  UNL1        0.0000
     19 H           9.6807    4.7374    7.3478 H       1  UNL1        0.0000
     20 H           8.2606    0.6903    8.8583 H       1  UNL1        0.0000
     21 H           8.0407    2.4230    8.7076 H       1  UNL1        0.0000
     22 H          10.0880    6.0146    6.2189 H       1  UNL1        0.0000
     23 H           8.2429    6.0450    3.7269 H       1  UNL1        0.0000
     24 H           7.0744    4.7335    3.6539 H       1  UNL1        0.0000
     25 H           8.5115    4.7204    2.6220 H       1  UNL1        0.0000
     26 H           6.8204    1.3200    8.0820 H       1  UNL1        0.0000
     27 H           8.4211    5.7776    6.7119 H       1  UNL1        0.0000
@<TRIPOS>BOND
     1    25     6    1
     2     6    24    1
     3     6    23    1
     4     6     2    1
     5    16     5    1
     6    17     5    1
     7     5     2    1
     8     5    18    1
     9    12     9    1
    10     2     3    1
    11     2     4    1
    12     3     1    1
    13    11     9    1
    14     9    10    1
    15     9     1    1
    16    13     8    1
    17    22     4    1
    18     4    27    1
    19     4    19    1
    20     1     8    1
    21     1     7    1
    22     8    15    1
    23     8    14    1
    24    26     7    1
    25     7    21    1
    26     7    20    1
