@<TRIPOS>MOLECULE
3
 27 26 0 0 0
SMALL
GASTEIGER

@<TRIPOS>ATOM
      1 SI          0.4490   14.0770   15.6807 Si      1  UNL1        0.0000
      2 SI          2.0437   11.5529   15.4640 Si      1  UNL1        0.0000
      3 N           1.1856   12.8525   14.7292 N.3     1  UNL1        0.0000
      4 C          -0.6120   15.2670   14.6195 C.3     1  UNL1        0.0000
      5 H          -0.1157   16.2216   14.4933 H       1  UNL1        0.0000
      6 H          -1.5607   15.4725   15.1051 H       1  UNL1        0.0000
      7 H          -0.8092   14.8559   13.6378 H       1  UNL1        0.0000
      8 C          -0.6955   13.3210   17.0242 C.3     1  UNL1        0.0000
      9 H          -1.4010   12.6038   16.6215 H       1  UNL1        0.0000
     10 H          -1.2636   14.0916   17.5373 H       1  UNL1        0.0000
     11 H          -0.1039   12.8031   17.7710 H       1  UNL1        0.0000
     12 C           0.9368   10.0364   15.8636 C.3     1  UNL1        0.0000
     13 H           0.1402   10.3130   16.5448 H       1  UNL1        0.0000
     14 H           1.5181    9.2552   16.3432 H       1  UNL1        0.0000
     15 H           0.4804    9.6081   14.9801 H       1  UNL1        0.0000
     16 C           1.5984   15.2509   16.6736 C.3     1  UNL1        0.0000
     17 H           2.2399   14.7020   17.3531 H       1  UNL1        0.0000
     18 H           1.0120   15.9439   17.2715 H       1  UNL1        0.0000
     19 H           2.2363   15.8398   16.0241 H       1  UNL1        0.0000
     20 C           2.9137   11.9213   17.1325 C.3     1  UNL1        0.0000
     21 H           3.6534   12.7104   17.0490 H       1  UNL1        0.0000
     22 H           3.4233   11.0366   17.5032 H       1  UNL1        0.0000
     23 H           2.1956   12.2227   17.8870 H       1  UNL1        0.0000
     24 C           3.4246   11.0036   14.2626 C.3     1  UNL1        0.0000
     25 H           3.2035   11.3255   13.2456 H       1  UNL1        0.0000
     26 H           3.5491    9.9281   14.2562 H       1  UNL1        0.0000
     27 H           4.3741   11.4420   14.5448 H       1  UNL1        0.0000
@<TRIPOS>BOND
     1    25    24    1
     2     7     4    1
     3    26    24    1
     4    24    27    1
     5    24     2    1
     6     5     4    1
     7     4     6    1
     8     4     1    1
     9     3     2    1
    10     3     1    1
    11    15    12    1
    12     2    12    1
    13     2    20    1
    14     1    16    1
    15     1     8    1
    16    12    14    1
    17    12    13    1
    18    19    16    1
    19     9     8    1
    20    16    18    1
    21    16    17    1
    22     8    10    1
    23     8    11    1
    24    21    20    1
    25    20    22    1
    26    20    23    1
