@<TRIPOS>MOLECULE
3
 27 26 0 0 0
SMALL
GASTEIGER

@<TRIPOS>ATOM
      1 SI          4.7555   12.8123   11.1675 Si      1  UNL1        0.0000
      2 SI          3.9495   15.1520   12.9234 Si      1  UNL1        0.0000
      3 N           3.5775   13.6820   12.0826 N.3     1  UNL1        0.0000
      4 C           3.8976   11.2087   10.5968 C.3     1  UNL1        0.0000
      5 H           4.1376   10.3789   11.2510 H       1  UNL1        0.0000
      6 H           4.2102   10.9322    9.5963 H       1  UNL1        0.0000
      7 H           2.8184   11.3440   10.5955 H       1  UNL1        0.0000
      8 C           2.2974   16.0963   12.9722 C.3     1  UNL1        0.0000
      9 H           2.1343   16.6639   12.0630 H       1  UNL1        0.0000
     10 H           2.2588   16.7922   13.8016 H       1  UNL1        0.0000
     11 H           1.4847   15.3804   13.0904 H       1  UNL1        0.0000
     12 C           5.2638   16.2715   12.1073 C.3     1  UNL1        0.0000
     13 H           6.2299   15.7810   12.0727 H       1  UNL1        0.0000
     14 H           5.3829   17.1912   12.6715 H       1  UNL1        0.0000
     15 H           4.9910   16.5395   11.0930 H       1  UNL1        0.0000
     16 C           5.2700   13.8036    9.6152 C.3     1  UNL1        0.0000
     17 H           4.4132   14.2771    9.1492 H       1  UNL1        0.0000
     18 H           5.7359   13.1549    8.8800 H       1  UNL1        0.0000
     19 H           5.9845   14.5806    9.8597 H       1  UNL1        0.0000
     20 C           6.3614   12.3796   12.1117 C.3     1  UNL1        0.0000
     21 H           6.8483   13.2776   12.4784 H       1  UNL1        0.0000
     22 H           7.0668   11.8631   11.4678 H       1  UNL1        0.0000
     23 H           6.1663   11.7390   12.9650 H       1  UNL1        0.0000
     24 C           4.5417   14.7106   14.6836 C.3     1  UNL1        0.0000
     25 H           3.7963   14.0855   15.1651 H       1  UNL1        0.0000
     26 H           4.7022   15.5890   15.3003 H       1  UNL1        0.0000
     27 H           5.4748   14.1569   14.6541 H       1  UNL1        0.0000
@<TRIPOS>BOND
     1    18    16    1
     2    17    16    1
     3     6     4    1
     4    16    19    1
     5    16     1    1
     6     7     4    1
     7     4     1    1
     8     4     5    1
     9    15    12    1
    10     1     3    1
    11     1    20    1
    12    22    20    1
    13     9     8    1
    14    13    12    1
    15     3     2    1
    16    12    14    1
    17    12     2    1
    18    20    21    1
    19    20    23    1
    20     2     8    1
    21     2    24    1
    22     8    11    1
    23     8    10    1
    24    27    24    1
    25    24    25    1
    26    24    26    1
