@<TRIPOS>MOLECULE
3
 27 26 0 0 0
SMALL
GASTEIGER

@<TRIPOS>ATOM
      1 SI          2.0366   19.5719    9.1994 Si      1  UNL1        0.0000
      2 SI          4.3065   17.7694    8.3013 Si      1  UNL1        0.0000
      3 N           2.6481   18.0165    8.7428 N.3     1  UNL1        0.0000
      4 C           0.1217   19.5663    9.0916 C.3     1  UNL1        0.0000
      5 C           2.6129   20.9754    8.0211 C.3     1  UNL1        0.0000
      6 C           2.5763   20.1395   10.9493 C.3     1  UNL1        0.0000
      7 C           5.5298   18.7408    9.4058 C.3     1  UNL1        0.0000
      8 C           4.7671   15.9235    8.4340 C.3     1  UNL1        0.0000
      9 C           4.6665   18.3423    6.4981 C.3     1  UNL1        0.0000
     10 H          -0.2939   20.3032    9.7729 H       1  UNL1        0.0000
     11 H          -0.2267   19.8276    8.0952 H       1  UNL1        0.0000
     12 H          -0.2846   18.5931    9.3613 H       1  UNL1        0.0000
     13 H           3.6909   21.0849    8.0467 H       1  UNL1        0.0000
     14 H           2.3226   20.8099    6.9877 H       1  UNL1        0.0000
     15 H           2.1823   21.9223    8.3300 H       1  UNL1        0.0000
     16 H           2.4767   19.3496   11.6854 H       1  UNL1        0.0000
     17 H           3.6132   20.4586   10.9462 H       1  UNL1        0.0000
     18 H           1.9794   20.9832   11.2832 H       1  UNL1        0.0000
     19 H           6.5556   18.4901    9.1561 H       1  UNL1        0.0000
     20 H           5.4150   19.8117    9.2788 H       1  UNL1        0.0000
     21 H           5.3827   18.5144   10.4564 H       1  UNL1        0.0000
     22 H           4.2389   15.3154    7.7062 H       1  UNL1        0.0000
     23 H           5.8322   15.7884    8.2699 H       1  UNL1        0.0000
     24 H           4.5276   15.5300    9.4172 H       1  UNL1        0.0000
     25 H           4.1264   17.7614    5.7566 H       1  UNL1        0.0000
     26 H           4.4072   19.3854    6.3526 H       1  UNL1        0.0000
     27 H           5.7246   18.2373    6.2801 H       1  UNL1        0.0000
@<TRIPOS>BOND
     1    25     9    1
     2    27     9    1
     3    26     9    1
     4     9     2    1
     5    14     5    1
     6    22     8    1
     7     5    13    1
     8     5    15    1
     9     5     1    1
    10    11     4    1
    11    23     8    1
    12     2     8    1
    13     2     3    1
    14     2     7    1
    15     8    24    1
    16     3     1    1
    17     4     1    1
    18     4    12    1
    19     4    10    1
    20    19     7    1
    21     1     6    1
    22    20     7    1
    23     7    21    1
    24    17     6    1
    25     6    18    1
    26     6    16    1
