@<TRIPOS>MOLECULE
3
 27 26 0 0 0
SMALL
GASTEIGER

@<TRIPOS>ATOM
      1 SI          0.6626   16.3986   11.6877 Si      1  UNL1        0.0000
      2 SI         -1.4865   15.7984    9.6440 Si      1  UNL1        0.0000
      3 N           0.1299   16.3111   10.0265 N.3     1  UNL1        0.0000
      4 C           0.0347   14.9284   12.7407 C.3     1  UNL1        0.0000
      5 C           0.0235   17.9879   12.5581 C.3     1  UNL1        0.0000
      6 C           2.5725   16.3286   11.7340 C.3     1  UNL1        0.0000
      7 C          -1.7681   16.0834    7.7707 C.3     1  UNL1        0.0000
      8 C          -2.7922   16.8561   10.5692 C.3     1  UNL1        0.0000
      9 C          -1.8652   13.9612   10.0081 C.3     1  UNL1        0.0000
     10 H          -1.0360   14.9795   12.9040 H       1  UNL1        0.0000
     11 H           0.2540   13.9840   12.2557 H       1  UNL1        0.0000
     12 H           0.5144   14.9213   13.7141 H       1  UNL1        0.0000
     13 H           0.5856   18.1792   13.4667 H       1  UNL1        0.0000
     14 H           0.1098   18.8622   11.9233 H       1  UNL1        0.0000
     15 H          -1.0194   17.8858   12.8390 H       1  UNL1        0.0000
     16 H           2.9428   16.4845   12.7435 H       1  UNL1        0.0000
     17 H           2.9109   15.3508   11.4003 H       1  UNL1        0.0000
     18 H           3.0160   17.0774   11.0825 H       1  UNL1        0.0000
     19 H          -1.7038   17.1363    7.5065 H       1  UNL1        0.0000
     20 H          -1.0418   15.5240    7.1870 H       1  UNL1        0.0000
     21 H          -2.7573   15.7386    7.4854 H       1  UNL1        0.0000
     22 H          -2.6014   17.9199   10.4707 H       1  UNL1        0.0000
     23 H          -3.7879   16.6624   10.1838 H       1  UNL1        0.0000
     24 H          -2.8005   16.6211   11.6277 H       1  UNL1        0.0000
     25 H          -2.6971   13.6111    9.4045 H       1  UNL1        0.0000
     26 H          -1.0037   13.3439    9.7805 H       1  UNL1        0.0000
     27 H          -2.1256   13.8021   11.0483 H       1  UNL1        0.0000
@<TRIPOS>BOND
     1    20     7    1
     2    21     7    1
     3    19     7    1
     4     7     2    1
     5    25     9    1
     6     2     9    1
     7     2     3    1
     8     2     8    1
     9    26     9    1
    10     9    27    1
    11     3     1    1
    12    23     8    1
    13    22     8    1
    14     8    24    1
    15    18     6    1
    16    17     6    1
    17     1     6    1
    18     1     5    1
    19     1     4    1
    20     6    16    1
    21    14     5    1
    22    11     4    1
    23     5    15    1
    24     5    13    1
    25     4    10    1
    26     4    12    1
