@<TRIPOS>MOLECULE
12
 39 40 0 0 0
SMALL
GASTEIGER

@<TRIPOS>ATOM
      1 C           6.7553   10.1275    6.8947 C.ar    1  UNL1        0.0000
      2 C           7.7405   11.0299    6.4423 C.ar    1  UNL1        0.0000
      3 H           8.1391   10.9047    5.4309 H       1  UNL1        0.0000
      4 C           8.2453   12.0253    7.2540 C.ar    1  UNL1        0.0000
      5 H           9.0039   12.7007    6.8871 H       1  UNL1        0.0000
      6 C           7.7792   12.1475    8.5523 C.ar    1  UNL1        0.0000
      7 C           6.8301   11.2638    9.0406 C.ar    1  UNL1        0.0000
      8 H           6.4779   11.3604   10.0561 H       1  UNL1        0.0000
      9 C           6.3366   10.2666    8.2284 C.ar    1  UNL1        0.0000
     10 H           5.5930    9.5884    8.6116 H       1  UNL1        0.0000
     11 CL          8.3863   13.4121    9.5684 Cl      1  UNL1        0.0000
     12 N           6.2649    9.1759    6.0291 N.pl3   1  UNL1        0.0000
     13 SI          5.9431    7.5691    6.5448 Si      1  UNL1        0.0000
     14 C           5.3758    6.6297    4.9867 C.3     1  UNL1        0.0000
     15 H           4.3694    6.9019    4.6829 H       1  UNL1        0.0000
     16 H           5.3808    5.5617    5.1727 H       1  UNL1        0.0000
     17 H           6.0492    6.8091    4.1528 H       1  UNL1        0.0000
     18 C           4.6688    7.2123    7.9405 C.3     1  UNL1        0.0000
     19 H           5.1180    7.2942    8.9261 H       1  UNL1        0.0000
     20 H           4.2701    6.2059    7.8499 H       1  UNL1        0.0000
     21 H           3.8239    7.8941    7.9101 H       1  UNL1        0.0000
     22 C           7.6124    6.7699    7.1399 C.3     1  UNL1        0.0000
     23 H           8.3425    7.5590    7.3349 H       1  UNL1        0.0000
     24 H           7.4820    6.2241    8.0737 H       1  UNL1        0.0000
     25 N           8.1502    5.8677    6.1591 N.ar    1  UNL1        0.0000
     26 C           8.8199    6.2410    5.0307 C.ar    1  UNL1        0.0000
     27 C           9.0690    5.1142    4.2887 C.ar    1  UNL1        0.0000
     28 H           9.5879    5.0807    3.3509 H       1  UNL1        0.0000
     29 C           8.5168    4.0244    4.9858 C.ar    1  UNL1        0.0000
     30 H           8.5364    2.9953    4.6837 H       1  UNL1        0.0000
     31 C           7.9470    4.5189    6.1323 C.ar    1  UNL1        0.0000
     32 C           9.1739    7.6560    4.7388 C.3     1  UNL1        0.0000
     33 H           8.2684    8.2657    4.5999 H       1  UNL1        0.0000
     34 H           9.7617    7.6893    3.8248 H       1  UNL1        0.0000
     35 H           9.7572    8.0949    5.5509 H       1  UNL1        0.0000
     36 C           7.2282    3.7933    7.2163 C.3     1  UNL1        0.0000
     37 H           7.1585    2.7401    6.9569 H       1  UNL1        0.0000
     38 H           6.2200    4.1863    7.3539 H       1  UNL1        0.0000
     39 H           7.7568    3.8758    8.1679 H       1  UNL1        0.0000
@<TRIPOS>BOND
     1    28    27    1
     2    34    32    1
     3    17    14    1
     4    27    29   ar
     5    27    26   ar
     6    33    32    1
     7    15    14    1
     8    30    29    1
     9    32    26    1
    10    32    35    1
    11    29    31   ar
    12    14    16    1
    13    14    13    1
    14    26    25   ar
    15     3     2    1
    16    12    13    1
    17    12     1    1
    18    31    25   ar
    19    31    36    1
    20    25    22    1
    21     2     1   ar
    22     2     4   ar
    23    13    22    1
    24    13    18    1
    25     5     4    1
    26     1     9   ar
    27    37    36    1
    28    22    23    1
    29    22    24    1
    30    36    38    1
    31    36    39    1
    32     4     6   ar
    33    20    18    1
    34    21    18    1
    35    18    19    1
    36     9    10    1
    37     9     7   ar
    38     6     7   ar
    39     6    11    1
    40     7     8    1
