@<TRIPOS>MOLECULE
1
 11 11 0 0 0
SMALL
GASTEIGER

@<TRIPOS>ATOM
      1 N           6.1168   13.7236   24.5845 N.pl3   1  UNL1       -0.2487
      2 C           6.8953   13.9240   25.6486 C.3     1  UNL1        0.0840
      3 C           6.4022   14.2675   26.8967 C.2     1  UNL1       -0.0600
      4 H           7.0793   14.4216   27.7220 H       1  UNL1        0.0592
      5 C           5.0336   14.4096   27.0595 C.2     1  UNL1       -0.0626
      6 C           4.2196   14.2037   25.9577 C.2     1  UNL1       -0.0466
      7 C           4.8036   13.8617   24.7478 C.2     1  UNL1        0.0121
      8 H           3.1488   14.3052   26.0312 H       1  UNL1        0.0630
      9 H           7.9568   13.8059   25.4766 H       1  UNL1        0.0584
     10 H           4.6133   14.6721   28.0189 H       1  UNL1        0.0615
     11 H           4.1970   13.6924   23.8703 H       1  UNL1        0.0797
@<TRIPOS>BOND
     1    11     7    1
     2     1     7    1
     3     1     2    1
     4     7     6    2
     5     9     2    1
     6     2     3    1
     7     6     8    1
     8     6     5    1
     9     3     5    2
    10     3     4    1
    11     5    10    1
