@<TRIPOS>MOLECULE
1
 11 11 0 0 0
SMALL
GASTEIGER

@<TRIPOS>ATOM
      1 N          14.6362   15.1882    5.7913 N.pl3   1  UNL1       -0.2487
      2 C          15.7251   14.9335    5.0663 C.3     1  UNL1        0.0840
      3 H          16.0652   13.9064    5.0619 H       1  UNL1        0.0584
      4 C          16.4089   15.9037    4.3534 C.2     1  UNL1       -0.0600
      5 H          17.2885   15.6416    3.7875 H       1  UNL1        0.0592
      6 C          15.9328   17.2061    4.3789 C.2     1  UNL1       -0.0626
      7 H          16.4311   17.9864    3.8226 H       1  UNL1        0.0615
      8 C          14.8160   17.4839    5.1492 C.2     1  UNL1       -0.0466
      9 H          14.4220   18.4852    5.2183 H       1  UNL1        0.0630
     10 C          14.2055   16.4495    5.8437 C.2     1  UNL1        0.0121
     11 H          13.3647   16.6315    6.4954 H       1  UNL1        0.0797
@<TRIPOS>BOND
     1     5     4    1
     2     7     6    1
     3     4     6    2
     4     4     2    1
     5     6     8    1
     6     3     2    1
     7     2     1    1
     8     8     9    1
     9     8    10    2
    10     1    10    1
    11    10    11    1
