@<TRIPOS>MOLECULE
1
 11 11 0 0 0
SMALL
GASTEIGER

@<TRIPOS>ATOM
      1 N           6.7807   14.1274   21.6673 N.pl3   1  UNL1       -0.2487
      2 C           6.4354   13.8547   20.4109 C.3     1  UNL1        0.0840
      3 C           6.4168   14.8102   19.4068 C.2     1  UNL1       -0.0600
      4 C           6.7587   16.1154   19.7209 C.2     1  UNL1       -0.0626
      5 C           7.1116   16.4053   21.0295 C.2     1  UNL1       -0.0466
      6 C           7.1200   15.3795   21.9615 C.2     1  UNL1        0.0121
      7 H           7.4115   15.5643   22.9872 H       1  UNL1        0.0797
      8 H           6.1463   12.8312   20.2146 H       1  UNL1        0.0584
      9 H           6.1363   14.5349   18.4024 H       1  UNL1        0.0592
     10 H           6.7484   16.8884   18.9670 H       1  UNL1        0.0615
     11 H           7.3789   17.4077   21.3224 H       1  UNL1        0.0630
@<TRIPOS>BOND
     1     9     3    1
     2    10     4    1
     3     3     4    2
     4     3     2    1
     5     4     5    1
     6     8     2    1
     7     2     1    1
     8     5    11    1
     9     5     6    2
    10     1     6    1
    11     6     7    1
