@<TRIPOS>MOLECULE
1
 11 11 0 0 0
SMALL
GASTEIGER

@<TRIPOS>ATOM
      1 N          17.0963    2.6534    7.3726 N.pl3   1  UNL1       -0.2487
      2 C          17.1683    1.9004    8.4625 C.3     1  UNL1        0.0840
      3 H          17.4774    2.4131    9.3666 H       1  UNL1        0.0584
      4 C          16.8847    0.5443    8.4584 C.2     1  UNL1       -0.0600
      5 H          16.9597   -0.0273    9.3702 H       1  UNL1        0.0592
      6 C          16.5075   -0.0521    7.2655 C.2     1  UNL1       -0.0626
      7 H          16.2747   -1.1056    7.2241 H       1  UNL1        0.0615
      8 C          16.4332    0.7353    6.1274 C.2     1  UNL1       -0.0466
      9 H          16.1441    0.3168    5.1763 H       1  UNL1        0.0630
     10 C          16.7358    2.0833    6.2308 C.2     1  UNL1        0.0121
     11 H          16.6932    2.7369    5.3683 H       1  UNL1        0.0797
@<TRIPOS>BOND
     1     9     8    1
     2    11    10    1
     3     8    10    2
     4     8     6    1
     5    10     1    1
     6     7     6    1
     7     6     4    2
     8     1     2    1
     9     4     2    1
    10     4     5    1
    11     2     3    1
