@<TRIPOS>MOLECULE
1
 31 31 0 0 0
SMALL
GASTEIGER

@<TRIPOS>ATOM
      1 N          10.3707    3.0686   -1.1049 N.pl3   1  UNL1       -0.2660
      2 H           9.9312    3.1147   -0.1822 H       1  UNL1        0.1699
      3 C           9.6426    2.1728   -1.8439 C.ar    1  UNL1        0.0512
      4 C          10.1485    1.6541   -3.0650 C.ar    1  UNL1       -0.0222
      5 C           9.3991    0.7531   -3.8002 C.ar    1  UNL1       -0.0565
      6 H           9.7980    0.3533   -4.7213 H       1  UNL1        0.0621
      7 C           8.1547    0.3306   -3.3750 C.ar    1  UNL1       -0.0611
      8 H           7.5820   -0.3709   -3.9638 H       1  UNL1        0.0618
      9 C           7.6668    0.7971   -2.1669 C.ar    1  UNL1       -0.0565
     10 H           6.7100    0.4357   -1.8232 H       1  UNL1        0.0621
     11 C           8.3716    1.7023   -1.3976 C.ar    1  UNL1       -0.0222
     12 C          11.5522    1.9824   -3.5316 C.3     1  UNL1       -0.0197
     13 H          11.9235    2.8394   -2.9436 H       1  UNL1        0.0344
     14 C          12.4707    0.7886   -3.2459 C.3     1  UNL1       -0.0586
     15 H          12.4561    0.5501   -2.1845 H       1  UNL1        0.0235
     16 H          13.4967    1.0055   -3.5429 H       1  UNL1        0.0235
     17 H          12.1316   -0.0874   -3.7951 H       1  UNL1        0.0235
     18 C          11.6114    2.3501   -5.0164 C.3     1  UNL1       -0.0586
     19 H          10.9415    3.1791   -5.2367 H       1  UNL1        0.0235
     20 H          11.3236    1.5068   -5.6388 H       1  UNL1        0.0235
     21 H          12.6233    2.6353   -5.3036 H       1  UNL1        0.0235
     22 C           7.8111    2.1321   -0.0545 C.3     1  UNL1       -0.0197
     23 H           8.1535    3.1464    0.1777 H       1  UNL1        0.0344
     24 C           8.3313    1.1930    1.0407 C.3     1  UNL1       -0.0586
     25 H           7.9729    1.5133    2.0167 H       1  UNL1        0.0235
     26 H           9.4196    1.1860    1.0613 H       1  UNL1        0.0235
     27 H           7.9870    0.1771    0.8560 H       1  UNL1        0.0235
     28 C           6.2832    2.1876   -0.0148 C.3     1  UNL1       -0.0586
     29 H           5.8961    2.7367   -0.8706 H       1  UNL1        0.0235
     30 H           5.9643    2.6958    0.8931 H       1  UNL1        0.0235
     31 H           5.8464    1.1920   -0.0092 H       1  UNL1        0.0235
@<TRIPOS>BOND
     1    20    18    1
     2    21    18    1
     3    19    18    1
     4    18    12    1
     5     6     5    1
     6     8     7    1
     7     5     7   ar
     8     5     4   ar
     9    17    14    1
    10    16    14    1
    11    12    14    1
    12    12     4    1
    13    12    13    1
    14     7     9   ar
    15    14    15    1
    16     4     3   ar
    17     9    10    1
    18     9    11   ar
    19     3    11   ar
    20     3     1    1
    21    11    22    1
    22     1     2    1
    23    29    28    1
    24    22    28    1
    25    22    23    1
    26    22    24    1
    27    28    31    1
    28    28    30    1
    29    27    24    1
    30    24    26    1
    31    24    25    1
