@<TRIPOS>MOLECULE
4
 44 45 0 0 0
SMALL
GASTEIGER

@<TRIPOS>ATOM
      1 SI          2.6766    1.2634    5.0659 Si      1  UNL1        0.0000
      2 H           3.9310    0.5161    5.2718 H       1  UNL1        0.0000
      3 H           2.1851    1.6243    6.4189 H       1  UNL1        0.0000
      4 N           3.0011    2.5471    3.9840 N.pl3   1  UNL1        0.0000
      5 C           1.9077    3.0382    3.2499 C.ar    1  UNL1        0.0000
      6 C           0.8890    3.8163    3.8470 C.ar    1  UNL1        0.0000
      7 C          -0.2458    4.1425    3.1182 C.ar    1  UNL1        0.0000
      8 H          -1.0339    4.7116    3.5897 H       1  UNL1        0.0000
      9 C          -0.3994    3.7448    1.8041 C.ar    1  UNL1        0.0000
     10 H          -1.2989    3.9897    1.2589 H       1  UNL1        0.0000
     11 C           0.6204    3.0394    1.1945 C.ar    1  UNL1        0.0000
     12 H           0.5075    2.7408    0.1629 H       1  UNL1        0.0000
     13 C           1.7680    2.6894    1.8873 C.ar    1  UNL1        0.0000
     14 C           2.8472    1.9040    1.1763 C.3     1  UNL1        0.0000
     15 H           3.7530    1.9141    1.8132 H       1  UNL1        0.0000
     16 C           2.3979    0.4546    0.9745 C.3     1  UNL1        0.0000
     17 H           2.2552   -0.0380    1.9327 H       1  UNL1        0.0000
     18 H           3.1359   -0.1005    0.3980 H       1  UNL1        0.0000
     19 H           1.4531    0.4254    0.4351 H       1  UNL1        0.0000
     20 C           3.2181    2.5364   -0.1673 C.3     1  UNL1        0.0000
     21 H           2.4072    2.4434   -0.8859 H       1  UNL1        0.0000
     22 H           4.0923    2.0365   -0.5809 H       1  UNL1        0.0000
     23 H           3.4430    3.5939   -0.0372 H       1  UNL1        0.0000
     24 C           1.0117    4.3282    5.2641 C.3     1  UNL1        0.0000
     25 H           2.0111    4.0624    5.6277 H       1  UNL1        0.0000
     26 C          -0.0370    3.6938    6.1816 C.3     1  UNL1        0.0000
     27 H           0.0958    4.0428    7.2043 H       1  UNL1        0.0000
     28 H           0.0467    2.6105    6.1743 H       1  UNL1        0.0000
     29 H          -1.0406    3.9621    5.8575 H       1  UNL1        0.0000
     30 C           0.8694    5.8541    5.3002 C.3     1  UNL1        0.0000
     31 H           1.5674    6.3217    4.6101 H       1  UNL1        0.0000
     32 H           1.0626    6.2294    6.3039 H       1  UNL1        0.0000
     33 H          -0.1376    6.1574    5.0232 H       1  UNL1        0.0000
     34 C           1.4218    0.0135    4.3917 C.ar    1  UNL1        0.0000
     35 C           0.1579    0.3934    3.9528 C.ar    1  UNL1        0.0000
     36 H          -0.1301    1.4324    3.9978 H       1  UNL1        0.0000
     37 C          -0.7377   -0.5310    3.4452 C.ar    1  UNL1        0.0000
     38 H          -1.7112   -0.2059    3.1056 H       1  UNL1        0.0000
     39 C          -0.3893   -1.8686    3.3721 C.ar    1  UNL1        0.0000
     40 H          -1.0863   -2.5933    2.9758 H       1  UNL1        0.0000
     41 C           0.8597   -2.2711    3.8139 C.ar    1  UNL1        0.0000
     42 H           1.1402   -3.3143    3.7650 H       1  UNL1        0.0000
     43 C           1.7486   -1.3373    4.3150 C.ar    1  UNL1        0.0000
     44 H           2.7219   -1.6595    4.6573 H       1  UNL1        0.0000
@<TRIPOS>BOND
     1    21    20    1
     2    22    20    1
     3    20    23    1
     4    20    14    1
     5    12    11    1
     6    18    16    1
     7    19    16    1
     8    16    14    1
     9    16    17    1
    10    14    15    1
    11    14    13    1
    12    11     9   ar
    13    11    13   ar
    14    10     9    1
    15     9     7   ar
    16    13     5   ar
    17    40    39    1
    18    38    37    1
    19     7     8    1
    20     7     6   ar
    21     5     6   ar
    22     5     4    1
    23    39    37   ar
    24    39    41   ar
    25    37    35   ar
    26    42    41    1
    27    41    43   ar
    28     6    24    1
    29    35    36    1
    30    35    34   ar
    31     4     1    1
    32    43    34   ar
    33    43    44    1
    34    34     1    1
    35    31    30    1
    36    33    30    1
    37     1     2    1
    38     1     3    1
    39    24    30    1
    40    24    25    1
    41    24    26    1
    42    30    32    1
    43    29    26    1
    44    28    26    1
    45    26    27    1
