@<TRIPOS>MOLECULE
1
 11 11 0 0 0
SMALL
GASTEIGER

@<TRIPOS>ATOM
      1 N           0.4320    1.5027    2.2199 N.pl3   1  UNL1       -0.2487
      2 C          -0.0323    0.3453    1.7323 C.3     1  UNL1        0.0840
      3 H          -1.0649    0.1145    1.9804 H       1  UNL1        0.0584
      4 C           0.7476   -0.5237    0.9885 C.2     1  UNL1       -0.0600
      5 H           0.3291   -1.4493    0.6237 H       1  UNL1        0.0592
      6 C           2.0683   -0.1889    0.7210 C.2     1  UNL1       -0.0626
      7 H           2.7048   -0.8467    0.1491 H       1  UNL1        0.0615
      8 C           2.5440    1.0243    1.2070 C.2     1  UNL1       -0.0466
      9 H           3.5608    1.3323    1.0160 H       1  UNL1        0.0630
     10 C           1.6994    1.8354    1.9424 C.2     1  UNL1        0.0121
     11 H           2.0263    2.7900    2.3469 H       1  UNL1        0.0797
@<TRIPOS>BOND
     1     7     6    1
     2     5     4    1
     3     6     4    2
     4     6     8    1
     5     4     2    1
     6     9     8    1
     7     8    10    2
     8     2     3    1
     9     2     1    1
    10    10     1    1
    11    10    11    1
