@<TRIPOS>MOLECULE
2
 23 23 0 0 0
SMALL
GASTEIGER

@<TRIPOS>ATOM
      1 SI          5.2572   10.9070    1.6702 Si      1  UNL1        0.0000
      2 N           2.1223    7.6479    2.4897 N.pl3   1  UNL1        0.0000
      3 N           4.0044    9.6793    1.7529 N.pl3   1  UNL1        0.0000
      4 C           3.3819    7.3671    1.9621 C.2     1  UNL1        0.0000
      5 H           3.6062    6.3143    1.8127 H       1  UNL1        0.0000
      6 C           4.2667    8.3130    1.6255 C.2     1  UNL1        0.0000
      7 H           5.2291    8.0641    1.2130 H       1  UNL1        0.0000
      8 C           2.6848    9.9573    2.1179 C.2     1  UNL1        0.0000
      9 H           2.4076   10.9969    2.0916 H       1  UNL1        0.0000
     10 C           1.8060    9.0052    2.4527 C.2     1  UNL1        0.0000
     11 H           0.7763    9.2553    2.6940 H       1  UNL1        0.0000
     12 C           6.0413   11.1236    3.4004 C.3     1  UNL1        0.0000
     13 H           6.8174   11.8824    3.3916 H       1  UNL1        0.0000
     14 H           6.4931   10.1994    3.7508 H       1  UNL1        0.0000
     15 H           5.3013   11.4225    4.1380 H       1  UNL1        0.0000
     16 C           4.4412   12.5273    1.0993 C.3     1  UNL1        0.0000
     17 H           3.8402   12.9766    1.8837 H       1  UNL1        0.0000
     18 H           3.8021   12.3761    0.2346 H       1  UNL1        0.0000
     19 H           5.1988   13.2532    0.8228 H       1  UNL1        0.0000
     20 C           6.5606   10.3180    0.4163 C.3     1  UNL1        0.0000
     21 H           6.1068    9.9777   -0.5096 H       1  UNL1        0.0000
     22 H           7.1637    9.5058    0.8100 H       1  UNL1        0.0000
     23 H           7.2391   11.1279    0.1696 H       1  UNL1        0.0000
@<TRIPOS>BOND
     1    21    20    1
     2    23    20    1
     3    18    16    1
     4    20    22    1
     5    20     1    1
     6    19    16    1
     7    16     1    1
     8    16    17    1
     9     7     6    1
    10     6     3    1
    11     6     4    2
    12     1     3    1
    13     1    12    1
    14     3     8    1
    15     5     4    1
    16     4     2    1
    17     9     8    1
    18     8    10    2
    19    10     2    1
    20    10    11    1
    21    13    12    1
    22    12    14    1
    23    12    15    1
