@<TRIPOS>MOLECULE
2
 27 26 0 0 0
SMALL
GASTEIGER

@<TRIPOS>ATOM
      1 SI         -2.2059    3.9035    5.3047 Si      1  UNL1        0.0000
      2 N          -1.3189    3.6595    6.7670 N.3     1  UNL1        0.0000
      3 C          -2.7669    2.2237    4.5786 C.3     1  UNL1        0.0000
      4 H          -3.6042    1.8398    5.1513 H       1  UNL1        0.0000
      5 H          -1.9872    1.4716    4.6007 H       1  UNL1        0.0000
      6 H          -3.0951    2.3345    3.5501 H       1  UNL1        0.0000
      7 C          -1.1146    4.8789    4.0519 C.3     1  UNL1        0.0000
      8 H          -0.1715    5.1580    4.5326 H       1  UNL1        0.0000
      9 H          -1.6083    5.7916    3.7331 H       1  UNL1        0.0000
     10 H          -0.8798    4.3062    3.1624 H       1  UNL1        0.0000
     11 C          -3.7960    4.9674    5.3736 C.3     1  UNL1        0.0000
     12 H          -3.5916    5.9812    5.7024 H       1  UNL1        0.0000
     13 H          -4.5299    4.5462    6.0502 H       1  UNL1        0.0000
     14 H          -4.2556    5.0267    4.3911 H       1  UNL1        0.0000
     15 SI         -2.0850    3.9526    8.2853 Si      1  UNL1        0.0000
     16 C          -2.5208    5.8209    8.5110 C.3     1  UNL1        0.0000
     17 H          -3.5484    6.0127    8.2208 H       1  UNL1        0.0000
     18 H          -1.8888    6.4446    7.8786 H       1  UNL1        0.0000
     19 H          -2.4011    6.1603    9.5359 H       1  UNL1        0.0000
     20 C          -1.1189    3.4797    9.8753 C.3     1  UNL1        0.0000
     21 H          -0.1708    3.9923    9.9941 H       1  UNL1        0.0000
     22 H          -0.9458    2.4117    9.9300 H       1  UNL1        0.0000
     23 H          -1.7352    3.7485   10.7282 H       1  UNL1        0.0000
     24 C          -3.6808    2.9177    8.4485 C.3     1  UNL1        0.0000
     25 H          -3.4578    1.8574    8.3981 H       1  UNL1        0.0000
     26 H          -4.3890    3.1371    7.6592 H       1  UNL1        0.0000
     27 H          -4.1722    3.1082    9.3971 H       1  UNL1        0.0000
@<TRIPOS>BOND
     1    10     7    1
     2     6     3    1
     3     9     7    1
     4     7     8    1
     5     7     1    1
     6    14    11    1
     7     3     5    1
     8     3     4    1
     9     3     1    1
    10     1    11    1
    11     1     2    1
    12    11    12    1
    13    11    13    1
    14     2    15    1
    15    26    24    1
    16    18    16    1
    17    17    16    1
    18    15    24    1
    19    15    16    1
    20    15    20    1
    21    25    24    1
    22    24    27    1
    23    16    19    1
    24    20    22    1
    25    20    21    1
    26    20    23    1
