@<TRIPOS>MOLECULE
1
 40 41 0 0 0
SMALL
GASTEIGER

@<TRIPOS>ATOM
      1 N           4.6866    8.4080    4.2039 N.3     1  UNL1       -0.3023
      2 N           5.0935    5.7292    4.9281 N.3     1  UNL1       -0.3023
      3 N           2.7544    6.9780    6.1016 N.3     1  UNL1       -0.2945
      4 C           4.5823    9.6878    3.4951 C.3     1  UNL1       -0.0126
      5 C           6.0345    7.8671    3.9990 C.3     1  UNL1        0.0114
      6 C           6.1120    6.3384    4.0757 C.3     1  UNL1        0.0114
      7 C           5.3584    4.2946    4.9792 C.3     1  UNL1       -0.0126
      8 C           5.1182    6.3022    6.2725 C.3     1  UNL1        0.0181
      9 C           4.0972    7.4394    6.4845 C.3     1  UNL1        0.0444
     10 C           4.2245    7.8707    7.9653 C.3     1  UNL1       -0.0442
     11 C           4.4570    8.6679    5.6275 C.3     1  UNL1        0.0181
     12 C           2.3102    5.7268    6.7265 C.3     1  UNL1       -0.0005
     13 C           0.8185    5.7102    6.4327 C.3     1  UNL1       -0.0390
     14 C           0.4238    7.1481    6.7510 C.3     1  UNL1       -0.0390
     15 C           1.6738    7.9574    6.3761 C.3     1  UNL1       -0.0005
     16 H           5.2889   10.4280    3.8977 H       1  UNL1        0.0391
     17 H           3.5696   10.0746    3.5828 H       1  UNL1        0.0391
     18 H           4.7968    9.5413    2.4392 H       1  UNL1        0.0391
     19 H           6.7317    8.3203    4.7232 H       1  UNL1        0.0439
     20 H           6.3758    8.1493    3.0014 H       1  UNL1        0.0439
     21 H           5.9684    5.9279    3.0727 H       1  UNL1        0.0439
     22 H           7.1245    6.0629    4.4253 H       1  UNL1        0.0439
     23 H           6.3408    4.0774    5.4255 H       1  UNL1        0.0391
     24 H           5.3385    3.8892    3.9700 H       1  UNL1        0.0391
     25 H           4.5923    3.7890    5.5625 H       1  UNL1        0.0391
     26 H           6.1214    6.6856    6.5113 H       1  UNL1        0.0445
     27 H           4.9008    5.5190    7.0015 H       1  UNL1        0.0445
     28 H           3.7661    8.8397    8.1426 H       1  UNL1        0.0248
     29 H           5.2742    7.9494    8.2369 H       1  UNL1        0.0248
     30 H           3.7632    7.1431    8.6270 H       1  UNL1        0.0248
     31 H           3.6364    9.3814    5.7103 H       1  UNL1        0.0445
     32 H           5.3496    9.1439    6.0699 H       1  UNL1        0.0445
     33 H           2.4704    5.7232    7.8161 H       1  UNL1        0.0427
     34 H           2.8198    4.8720    6.2880 H       1  UNL1        0.0427
     35 H           0.2806    4.9771    7.0308 H       1  UNL1        0.0278
     36 H           0.6660    5.4993    5.3708 H       1  UNL1        0.0278
     37 H           0.2027    7.2534    7.8147 H       1  UNL1        0.0278
     38 H          -0.4502    7.4721    6.1904 H       1  UNL1        0.0278
     39 H           1.4948    8.5456    5.4760 H       1  UNL1        0.0427
     40 H           1.9324    8.6337    7.1961 H       1  UNL1        0.0427
@<TRIPOS>BOND
     1    18     4    1
     2    20     5    1
     3    21     6    1
     4     4    17    1
     5     4    16    1
     6     4     1    1
     7    24     7    1
     8     5     6    1
     9     5     1    1
    10     5    19    1
    11     6    22    1
    12     6     2    1
    13     1    11    1
    14     2     7    1
    15     2     8    1
    16     7    23    1
    17     7    25    1
    18    36    13    1
    19    39    15    1
    20    11    31    1
    21    11    32    1
    22    11     9    1
    23     3    15    1
    24     3     9    1
    25     3    12    1
    26    38    14    1
    27     8     9    1
    28     8    26    1
    29     8    27    1
    30    34    12    1
    31    15    14    1
    32    15    40    1
    33    13    12    1
    34    13    14    1
    35    13    35    1
    36     9    10    1
    37    12    33    1
    38    14    37    1
    39    10    28    1
    40    10    29    1
    41    10    30    1
