@<TRIPOS>MOLECULE
3
 27 26 0 0 0
SMALL
GASTEIGER

@<TRIPOS>ATOM
      1 SI         16.0810    1.6808    7.5096 Si      1  UNL1        0.0000
      2 SI         14.2175    3.4011    9.1944 Si      1  UNL1        0.0000
      3 N          15.6801    3.1467    8.3227 N.3     1  UNL1        0.0000
      4 C          17.8801    1.8810    6.8635 C.3     1  UNL1        0.0000
      5 H          18.6088    1.7099    7.6533 H       1  UNL1        0.0000
      6 H          18.0428    2.8798    6.4454 H       1  UNL1        0.0000
      7 H          18.0903    1.1646    6.0746 H       1  UNL1        0.0000
      8 C          14.9737    1.2360    6.0116 C.3     1  UNL1        0.0000
      9 H          14.8363    2.0822    5.3474 H       1  UNL1        0.0000
     10 H          13.9921    0.9148    6.3409 H       1  UNL1        0.0000
     11 H          15.4036    0.4258    5.4303 H       1  UNL1        0.0000
     12 C          16.0567    0.1370    8.6496 C.3     1  UNL1        0.0000
     13 H          15.0808    0.0214    9.1082 H       1  UNL1        0.0000
     14 H          16.7908    0.2026    9.4469 H       1  UNL1        0.0000
     15 H          16.2629   -0.7681    8.0880 H       1  UNL1        0.0000
     16 C          14.2932    2.7640   11.0119 C.3     1  UNL1        0.0000
     17 H          14.9940    3.3252   11.6241 H       1  UNL1        0.0000
     18 H          14.5881    1.7201   11.0461 H       1  UNL1        0.0000
     19 H          13.3189    2.8409   11.4845 H       1  UNL1        0.0000
     20 C          12.6673    2.5714    8.4470 C.3     1  UNL1        0.0000
     21 H          12.7510    1.4913    8.4946 H       1  UNL1        0.0000
     22 H          12.5328    2.8459    7.4067 H       1  UNL1        0.0000
     23 H          11.7678    2.8560    8.9834 H       1  UNL1        0.0000
     24 C          13.8892    5.2932    9.2649 C.3     1  UNL1        0.0000
     25 H          13.1066    5.5822    8.5707 H       1  UNL1        0.0000
     26 H          14.7883    5.8621    9.0025 H       1  UNL1        0.0000
     27 H          13.5742    5.6089   10.2547 H       1  UNL1        0.0000
@<TRIPOS>BOND
     1     9     8    1
     2    11     8    1
     3     8    10    1
     4     8     1    1
     5     7     4    1
     6     6     4    1
     7     4     1    1
     8     4     5    1
     9    22    20    1
    10     1     3    1
    11     1    12    1
    12    15    12    1
    13     3     2    1
    14    20    21    1
    15    20    23    1
    16    20     2    1
    17    25    24    1
    18    12    13    1
    19    12    14    1
    20    26    24    1
    21     2    24    1
    22     2    16    1
    23    24    27    1
    24    16    18    1
    25    16    19    1
    26    16    17    1
