@<TRIPOS>MOLECULE
1
 11 11 0 0 0
SMALL
GASTEIGER

@<TRIPOS>ATOM
      1 N          18.7349    3.3649    9.7390 N.pl3   1  UNL1       -0.2487
      2 C          17.9589    2.7025   10.5999 C.3     1  UNL1        0.0840
      3 H          16.9175    2.6101   10.3193 H       1  UNL1        0.0584
      4 C          18.4328    2.1381   11.7726 C.2     1  UNL1       -0.0600
      5 H          17.7545    1.6234   12.4346 H       1  UNL1        0.0592
      6 C          19.7801    2.2468   12.0744 C.2     1  UNL1       -0.0626
      7 H          20.1835    1.8226   12.9815 H       1  UNL1        0.0615
      8 C          20.5966    2.9103   11.1752 C.2     1  UNL1       -0.0466
      9 H          21.6548    3.0131   11.3562 H       1  UNL1        0.0630
     10 C          20.0301    3.4543   10.0338 C.2     1  UNL1        0.0121
     11 H          20.6518    3.9797    9.3215 H       1  UNL1        0.0797
@<TRIPOS>BOND
     1    11    10    1
     2     1    10    1
     3     1     2    1
     4    10     8    2
     5     3     2    1
     6     2     4    1
     7     8     9    1
     8     8     6    1
     9     4     6    2
    10     4     5    1
    11     6     7    1
