@<TRIPOS>MOLECULE
1
 29 30 0 0 0
SMALL
GASTEIGER

@<TRIPOS>ATOM
      1 N          17.4657    6.2635    9.6762 N.3     1  UNL1       -0.2311
      2 C          17.6453    7.6990    9.4440 C.3     1  UNL1        0.0394
      3 H          18.4170    7.8464    8.6753 H       1  UNL1        0.0490
      4 H          17.9781    8.1987   10.3653 H       1  UNL1        0.0490
      5 C          16.3504    8.3204    8.9718 C.ar    1  UNL1       -0.0320
      6 C          15.4979    8.9761    9.8531 C.ar    1  UNL1       -0.0573
      7 H          15.7988    9.1254   10.8812 H       1  UNL1        0.0621
      8 C          14.2716    9.4554    9.4245 C.ar    1  UNL1       -0.0615
      9 H          13.6176    9.9589   10.1218 H       1  UNL1        0.0618
     10 C          13.8891    9.3002    8.1038 C.ar    1  UNL1       -0.0617
     11 H          12.9368    9.6828    7.7670 H       1  UNL1        0.0618
     12 C          14.7384    8.6628    7.2135 C.ar    1  UNL1       -0.0615
     13 H          14.4519    8.5604    6.1767 H       1  UNL1        0.0618
     14 C          15.9569    8.1651    7.6438 C.ar    1  UNL1       -0.0573
     15 H          16.6250    7.6791    6.9393 H       1  UNL1        0.0621
     16 C          17.0191    6.0033   11.0355 C.3     1  UNL1        0.0394
     17 H          16.3539    5.1279   11.0607 H       1  UNL1        0.0490
     18 H          16.4294    6.8501   11.4270 H       1  UNL1        0.0490
     19 C          18.1508    5.7462   12.0165 C.ar    1  UNL1       -0.0320
     20 C          19.4691    6.0465   11.7040 C.ar    1  UNL1       -0.0573
     21 H          19.6969    6.4575   10.7318 H       1  UNL1        0.0621
     22 C          20.4816    5.8197   12.6204 C.ar    1  UNL1       -0.0615
     23 H          21.5019    6.0686   12.3651 H       1  UNL1        0.0618
     24 C          20.1918    5.2784   13.8601 C.ar    1  UNL1       -0.0617
     25 H          20.9812    5.1019   14.5760 H       1  UNL1        0.0618
     26 C          18.8805    4.9656   14.1785 C.ar    1  UNL1       -0.0615
     27 H          18.6456    4.5402   15.1437 H       1  UNL1        0.0618
     28 C          17.8703    5.2004   13.2646 C.ar    1  UNL1       -0.0573
     29 H          16.8473    4.9595   13.5199 H       1  UNL1        0.0621
@<TRIPOS>BOND
     1    13    12    1
     2    15    14    1
     3    12    14   ar
     4    12    10   ar
     5    14     5   ar
     6    11    10    1
     7    10     8   ar
     8     3     2    1
     9     5     2    1
    10     5     6   ar
    11     8     6   ar
    12     8     9    1
    13     2     1    1
    14     2     4    1
    15     1    16    1
    16     6     7    1
    17    21    20    1
    18    16    17    1
    19    16    18    1
    20    16    19    1
    21    20    19   ar
    22    20    22   ar
    23    19    28   ar
    24    23    22    1
    25    22    24   ar
    26    28    29    1
    27    28    26   ar
    28    24    26   ar
    29    24    25    1
    30    26    27    1
