@<TRIPOS>MOLECULE
3
 27 26 0 0 0
SMALL
GASTEIGER

@<TRIPOS>ATOM
      1 SI         19.2116    6.0549    5.6181 Si      1  UNL1        0.0000
      2 SI         16.3940    5.4002    4.7834 Si      1  UNL1        0.0000
      3 N          17.6273    5.5022    5.9914 N.3     1  UNL1        0.0000
      4 C          19.9727    5.3484    4.0131 C.3     1  UNL1        0.0000
      5 H          19.4477    5.7289    3.1444 H       1  UNL1        0.0000
      6 H          19.9097    4.2658    3.9864 H       1  UNL1        0.0000
      7 H          21.0179    5.6223    3.9114 H       1  UNL1        0.0000
      8 C          19.3893    7.9638    5.5087 C.3     1  UNL1        0.0000
      9 H          19.0881    8.4559    6.4290 H       1  UNL1        0.0000
     10 H          18.7719    8.3618    4.7112 H       1  UNL1        0.0000
     11 H          20.4153    8.2538    5.3032 H       1  UNL1        0.0000
     12 C          20.3232    5.4672    7.0694 C.3     1  UNL1        0.0000
     13 H          20.4017    4.3813    7.0699 H       1  UNL1        0.0000
     14 H          19.9116    5.7983    8.0257 H       1  UNL1        0.0000
     15 H          21.3296    5.8671    6.9883 H       1  UNL1        0.0000
     16 C          16.6146    3.9135    3.5937 C.3     1  UNL1        0.0000
     17 H          16.7998    2.9925    4.1360 H       1  UNL1        0.0000
     18 H          17.4515    4.0739    2.9230 H       1  UNL1        0.0000
     19 H          15.7302    3.7645    2.9819 H       1  UNL1        0.0000
     20 C          14.7165    5.2017    5.6810 C.3     1  UNL1        0.0000
     21 H          14.4609    6.0853    6.2595 H       1  UNL1        0.0000
     22 H          14.7326    4.3482    6.3559 H       1  UNL1        0.0000
     23 H          13.9138    5.0387    4.9676 H       1  UNL1        0.0000
     24 C          16.2826    6.9560    3.6708 C.3     1  UNL1        0.0000
     25 H          17.1768    7.0561    3.0654 H       1  UNL1        0.0000
     26 H          16.1794    7.8655    4.2533 H       1  UNL1        0.0000
     27 H          15.4349    6.8981    2.9957 H       1  UNL1        0.0000
@<TRIPOS>BOND
     1    18    16    1
     2    19    16    1
     3    27    24    1
     4    25    24    1
     5     5     4    1
     6    16    17    1
     7    16     2    1
     8    24    26    1
     9    24     2    1
    10     7     4    1
    11     6     4    1
    12     4     1    1
    13    10     8    1
    14     2    20    1
    15     2     3    1
    16    23    20    1
    17    11     8    1
    18     8     1    1
    19     8     9    1
    20     1     3    1
    21     1    12    1
    22    20    21    1
    23    20    22    1
    24    15    12    1
    25    12    13    1
    26    12    14    1
