@<TRIPOS>MOLECULE
1
 29 30 0 0 0
SMALL
GASTEIGER

@<TRIPOS>ATOM
      1 N          25.6852    2.0243   30.6973 N.3     1  UNL1       -0.2311
      2 C          26.5856    2.9799   31.3401 C.3     1  UNL1        0.0394
      3 H          27.6201    2.6840   31.1246 H       1  UNL1        0.0490
      4 H          26.4473    2.9480   32.4317 H       1  UNL1        0.0490
      5 C          26.4029    4.4103   30.8794 C.ar    1  UNL1       -0.0320
      6 C          27.3147    4.9849   30.0005 C.ar    1  UNL1       -0.0573
      7 H          28.1605    4.4029   29.6600 H       1  UNL1        0.0621
      8 C          27.1798    6.2988   29.5871 C.ar    1  UNL1       -0.0615
      9 H          27.9143    6.7312   28.9218 H       1  UNL1        0.0618
     10 C          26.1148    7.0613   30.0337 C.ar    1  UNL1       -0.0617
     11 H          26.0105    8.0897   29.7191 H       1  UNL1        0.0618
     12 C          25.1971    6.5027   30.9071 C.ar    1  UNL1       -0.0615
     13 H          24.3717    7.0960   31.2746 H       1  UNL1        0.0618
     14 C          25.3478    5.1959   31.3344 C.ar    1  UNL1       -0.0573
     15 H          24.6484    4.7924   32.0505 H       1  UNL1        0.0621
     16 C          24.4393    1.8755   31.4437 C.3     1  UNL1        0.0394
     17 H          23.8246    1.1325   30.9217 H       1  UNL1        0.0490
     18 H          23.8695    2.8240   31.4752 H       1  UNL1        0.0490
     19 C          24.6507    1.3947   32.8644 C.ar    1  UNL1       -0.0320
     20 C          24.3853    2.2086   33.9584 C.ar    1  UNL1       -0.0573
     21 H          23.9920    3.2047   33.8053 H       1  UNL1        0.0621
     22 C          24.6104    1.7578   35.2483 C.ar    1  UNL1       -0.0615
     23 H          24.3997    2.4044   36.0881 H       1  UNL1        0.0618
     24 C          25.1058    0.4838   35.4611 C.ar    1  UNL1       -0.0617
     25 H          25.2833    0.1317   36.4667 H       1  UNL1        0.0618
     26 C          25.3690   -0.3379   34.3772 C.ar    1  UNL1       -0.0615
     27 H          25.7505   -1.3359   34.5368 H       1  UNL1        0.0618
     28 C          25.1421    0.1143   33.0906 C.ar    1  UNL1       -0.0573
     29 H          25.3419   -0.5255   32.2453 H       1  UNL1        0.0621
@<TRIPOS>BOND
     1     9     8    1
     2     8     6   ar
     3     8    10   ar
     4     7     6    1
     5    11    10    1
     6     6     5   ar
     7    10    12   ar
     8     1     2    1
     9     1    16    1
    10     5    14   ar
    11     5     2    1
    12    12    13    1
    13    12    14   ar
    14    17    16    1
    15     3     2    1
    16    14    15    1
    17     2     4    1
    18    16    18    1
    19    16    19    1
    20    29    28    1
    21    19    28   ar
    22    19    20   ar
    23    28    26   ar
    24    21    20    1
    25    20    22   ar
    26    26    27    1
    27    26    24   ar
    28    22    24   ar
    29    22    23    1
    30    24    25    1
