@<TRIPOS>MOLECULE
3
 27 26 0 0 0
SMALL
GASTEIGER

@<TRIPOS>ATOM
      1 SI         27.9120   -0.5139   26.5557 Si      1  UNL1        0.0000
      2 SI         29.0567    0.0415   29.3146 Si      1  UNL1        0.0000
      3 N          27.8322    0.2232   28.1123 N.3     1  UNL1        0.0000
      4 C          26.8909    0.5484   25.3269 C.3     1  UNL1        0.0000
      5 H          27.4156    1.4460   25.0098 H       1  UNL1        0.0000
      6 H          25.9458    0.8423   25.7797 H       1  UNL1        0.0000
      7 H          26.6576   -0.0192   24.4315 H       1  UNL1        0.0000
      8 C          27.1687   -2.2787   26.5011 C.3     1  UNL1        0.0000
      9 H          26.1119   -2.2505   26.7498 H       1  UNL1        0.0000
     10 H          27.6616   -2.9369   27.2095 H       1  UNL1        0.0000
     11 H          27.2697   -2.7244   25.5160 H       1  UNL1        0.0000
     12 C          29.6662   -0.5998   25.7852 C.3     1  UNL1        0.0000
     13 H          30.1832   -1.5006   26.0924 H       1  UNL1        0.0000
     14 H          30.2761    0.2452   26.0871 H       1  UNL1        0.0000
     15 H          29.6204   -0.6038   24.7007 H       1  UNL1        0.0000
     16 C          30.1385    1.6347   29.3973 C.3     1  UNL1        0.0000
     17 H          30.7086    1.7751   28.4840 H       1  UNL1        0.0000
     18 H          30.8483    1.5832   30.2168 H       1  UNL1        0.0000
     19 H          29.5302    2.5226   29.5470 H       1  UNL1        0.0000
     20 C          28.3335   -0.2314   31.0692 C.3     1  UNL1        0.0000
     21 H          28.0704   -1.2728   31.2274 H       1  UNL1        0.0000
     22 H          27.4458    0.3713   31.2420 H       1  UNL1        0.0000
     23 H          29.0620    0.0341   31.8299 H       1  UNL1        0.0000
     24 C          30.2795   -1.4067   29.0617 C.3     1  UNL1        0.0000
     25 H          31.0276   -1.1699   28.3153 H       1  UNL1        0.0000
     26 H          29.7607   -2.3005   28.7347 H       1  UNL1        0.0000
     27 H          30.8005   -1.6453   29.9833 H       1  UNL1        0.0000
@<TRIPOS>BOND
     1     7     4    1
     2    15    12    1
     3     5     4    1
     4     4     6    1
     5     4     1    1
     6    11     8    1
     7    12    14    1
     8    12    13    1
     9    12     1    1
    10     8     1    1
    11     8     9    1
    12     8    10    1
    13     1     3    1
    14     3     2    1
    15    25    24    1
    16    17    16    1
    17    26    24    1
    18    24     2    1
    19    24    27    1
    20     2    16    1
    21     2    20    1
    22    16    19    1
    23    16    18    1
    24    20    21    1
    25    20    22    1
    26    20    23    1
