@<TRIPOS>MOLECULE
3
 27 26 0 0 0
SMALL
GASTEIGER

@<TRIPOS>ATOM
      1 SI         23.0863    0.3513   26.5032 Si      1  UNL1        0.0000
      2 SI         23.6823   -1.3712   28.8443 Si      1  UNL1        0.0000
      3 N          24.0398    0.0322   27.9038 N.3     1  UNL1        0.0000
      4 C          21.1993    0.3395   26.8537 C.3     1  UNL1        0.0000
      5 H          20.9107    1.1184   27.5536 H       1  UNL1        0.0000
      6 H          20.8941   -0.6105   27.2778 H       1  UNL1        0.0000
      7 H          20.6288    0.4929   25.9429 H       1  UNL1        0.0000
      8 C          23.3659   -0.9049   25.0786 C.3     1  UNL1        0.0000
      9 H          22.7574   -1.7912   25.2186 H       1  UNL1        0.0000
     10 H          24.4015   -1.2247   25.0299 H       1  UNL1        0.0000
     11 H          23.1054   -0.4815   24.1128 H       1  UNL1        0.0000
     12 C          23.4107    2.0838   25.7339 C.3     1  UNL1        0.0000
     13 H          24.4296    2.4326   25.8789 H       1  UNL1        0.0000
     14 H          22.7424    2.8339   26.1452 H       1  UNL1        0.0000
     15 H          23.2309    2.0488   24.6640 H       1  UNL1        0.0000
     16 C          22.3013   -1.0705   30.1607 C.3     1  UNL1        0.0000
     17 H          21.6329   -0.2723   29.8536 H       1  UNL1        0.0000
     18 H          22.7021   -0.8111   31.1365 H       1  UNL1        0.0000
     19 H          21.6969   -1.9627   30.2915 H       1  UNL1        0.0000
     20 C          23.1106   -2.9305   27.8950 C.3     1  UNL1        0.0000
     21 H          23.7967   -3.1910   27.0974 H       1  UNL1        0.0000
     22 H          22.1344   -2.7757   27.4497 H       1  UNL1        0.0000
     23 H          23.0370   -3.7870   28.5582 H       1  UNL1        0.0000
     24 C          25.2823   -1.8702   29.7735 C.3     1  UNL1        0.0000
     25 H          25.8915   -0.9855   29.9833 H       1  UNL1        0.0000
     26 H          25.8881   -2.5484   29.1823 H       1  UNL1        0.0000
     27 H          25.0593   -2.3693   30.7120 H       1  UNL1        0.0000
@<TRIPOS>BOND
     1    11     8    1
     2    15    12    1
     3    10     8    1
     4     8     9    1
     5     8     1    1
     6    12    13    1
     7    12    14    1
     8    12     1    1
     9     7     4    1
    10     1     4    1
    11     1     3    1
    12     4     6    1
    13     4     5    1
    14    21    20    1
    15    22    20    1
    16    20    23    1
    17    20     2    1
    18     3     2    1
    19     2    24    1
    20     2    16    1
    21    26    24    1
    22    24    25    1
    23    24    27    1
    24    17    16    1
    25    16    19    1
    26    16    18    1
