@<TRIPOS>MOLECULE
1
 17 17 0 0 0
SMALL
GASTEIGER

@<TRIPOS>ATOM
      1 N           7.3103    9.2965    4.6646 N.pl3   1  UNL1       -0.2482
      2 C           6.0558    8.9357    4.9688 C.3     1  UNL1        0.0869
      3 H           5.3840    8.7998    4.1356 H       1  UNL1        0.0586
      4 C           5.6047    8.7070    6.2577 C.2     1  UNL1       -0.0484
      5 C           6.5107    8.8526    7.3023 C.2     1  UNL1       -0.0568
      6 H           6.2039    8.6755    8.3225 H       1  UNL1        0.0621
      7 C           7.8225    9.2172    7.0143 C.2     1  UNL1       -0.0351
      8 C           8.1652    9.4233    5.6889 C.2     1  UNL1        0.0151
      9 H           9.1737    9.7023    5.4249 H       1  UNL1        0.0800
     10 C           4.1833    8.3125    6.5086 C.3     1  UNL1       -0.0416
     11 H           3.7244    7.9313    5.6002 H       1  UNL1        0.0275
     12 H           3.6101    9.1747    6.8494 H       1  UNL1        0.0275
     13 H           4.1293    7.5494    7.2819 H       1  UNL1        0.0275
     14 C           8.8397    9.3594    8.1024 C.3     1  UNL1       -0.0385
     15 H           9.7359    9.8483    7.7316 H       1  UNL1        0.0278
     16 H           9.1161    8.3767    8.4837 H       1  UNL1        0.0278
     17 H           8.4353    9.9369    8.9311 H       1  UNL1        0.0278
@<TRIPOS>BOND
     1     3     2    1
     2     1     2    1
     3     1     8    1
     4     2     4    1
     5     9     8    1
     6    11    10    1
     7     8     7    2
     8     4    10    1
     9     4     5    2
    10    10    12    1
    11    10    13    1
    12     7     5    1
    13     7    14    1
    14     5     6    1
    15    15    14    1
    16    14    16    1
    17    14    17    1
