@<TRIPOS>MOLECULE
1
 11 11 0 0 0
SMALL
GASTEIGER

@<TRIPOS>ATOM
      1 N          11.2044   11.2217    7.2296 N.pl3   1  UNL1       -0.2487
      2 C          11.6106   10.0465    6.7634 C.3     1  UNL1        0.0840
      3 C          11.5600    9.7108    5.4195 C.2     1  UNL1       -0.0600
      4 C          11.0667   10.6425    4.5196 C.2     1  UNL1       -0.0626
      5 C          10.6440   11.8699    5.0056 C.2     1  UNL1       -0.0466
      6 C          10.7309   12.1171    6.3670 C.2     1  UNL1        0.0121
      7 H          12.0102    9.3499    7.4938 H       1  UNL1        0.0584
      8 H          11.9081    8.7456    5.0855 H       1  UNL1        0.0592
      9 H          11.0204   10.4184    3.4642 H       1  UNL1        0.0615
     10 H          10.2598   12.6268    4.3399 H       1  UNL1        0.0630
     11 H          10.4296   13.0676    6.7990 H       1  UNL1        0.0797
@<TRIPOS>BOND
     1     9     4    1
     2    10     5    1
     3     4     5    1
     4     4     3    2
     5     5     6    2
     6     8     3    1
     7     3     2    1
     8     6    11    1
     9     6     1    1
    10     2     1    1
    11     2     7    1
