@<TRIPOS>MOLECULE
1
 11 11 0 0 0
SMALL
GASTEIGER

@<TRIPOS>ATOM
      1 N          12.7729   12.7012   10.8520 N.pl3   1  UNL1       -0.2487
      2 C          12.2504   12.4106   12.0496 C.3     1  UNL1        0.0840
      3 C          12.4089   13.2161   13.1612 C.2     1  UNL1       -0.0600
      4 C          13.1509   14.3851   13.0504 C.2     1  UNL1       -0.0626
      5 C          13.7235   14.6738   11.8218 C.2     1  UNL1       -0.0466
      6 C          13.5126   13.8156   10.7581 C.2     1  UNL1        0.0121
      7 H          11.6852   11.4836   12.1146 H       1  UNL1        0.0584
      8 H          11.9590   12.9350   14.1012 H       1  UNL1        0.0592
      9 H          13.2811   15.0421   13.8961 H       1  UNL1        0.0615
     10 H          14.3223   15.5601   11.6845 H       1  UNL1        0.0630
     11 H          13.9581   14.0112    9.7888 H       1  UNL1        0.0797
@<TRIPOS>BOND
     1    11     6    1
     2     6     1    1
     3     6     5    2
     4     1     2    1
     5    10     5    1
     6     5     4    1
     7     2     7    1
     8     2     3    1
     9     4     3    2
    10     4     9    1
    11     3     8    1
