@<TRIPOS>MOLECULE
2
 24 23 0 0 0
SMALL
GASTEIGER

@<TRIPOS>ATOM
      1 SI         -2.0595    0.9286   -7.5219 Si      1  UNL1        0.0000
      2 N          -1.3107    0.8863   -5.9497 N.3     1  UNL1        0.0000
      3 C          -0.0702    0.1816   -5.6489 C.3     1  UNL1        0.0000
      4 C          -0.4087   -1.1931   -5.0483 C.3     1  UNL1        0.0000
      5 H          -0.9752   -1.7858   -5.7659 H       1  UNL1        0.0000
      6 H          -1.0058   -1.0625   -4.1432 H       1  UNL1        0.0000
      7 H           0.4988   -1.7342   -4.7892 H       1  UNL1        0.0000
      8 C           0.8218   -0.0231   -6.8788 C.3     1  UNL1        0.0000
      9 H           0.3287   -0.6463   -7.6191 H       1  UNL1        0.0000
     10 H           1.7454   -0.5145   -6.5804 H       1  UNL1        0.0000
     11 H           1.0692    0.9337   -7.3285 H       1  UNL1        0.0000
     12 C           0.7235    1.0081   -4.6248 C.3     1  UNL1        0.0000
     13 H           0.9239    2.0004   -5.0282 H       1  UNL1        0.0000
     14 H           1.6711    0.5237   -4.3990 H       1  UNL1        0.0000
     15 H           0.1497    1.1106   -3.7034 H       1  UNL1        0.0000
     16 C          -2.6773   -0.7972   -8.0821 C.3     1  UNL1        0.0000
     17 H          -1.8635   -1.4771   -8.3203 H       1  UNL1        0.0000
     18 H          -3.2875   -0.7053   -8.9753 H       1  UNL1        0.0000
     19 H          -3.2904   -1.2697   -7.3157 H       1  UNL1        0.0000
     20 C          -1.0401    1.6844   -8.9475 C.3     1  UNL1        0.0000
     21 H          -0.3832    0.9627   -9.4207 H       1  UNL1        0.0000
     22 H          -0.4361    2.5235   -8.6195 H       1  UNL1        0.0000
     23 H          -1.7160    2.0528   -9.7126 H       1  UNL1        0.0000
     24 H          -3.2615    1.8160   -7.3538 H       1  UNL1        0.0000
@<TRIPOS>BOND
     1    23    20    1
     2    21    20    1
     3    18    16    1
     4    20    22    1
     5    20     1    1
     6    17    16    1
     7    16     1    1
     8    16    19    1
     9     9     8    1
    10     1    24    1
    11     1     2    1
    12    11     8    1
    13     8    10    1
    14     8     3    1
    15     2     3    1
    16     5     4    1
    17     3     4    1
    18     3    12    1
    19     4     7    1
    20     4     6    1
    21    13    12    1
    22    12    14    1
    23    12    15    1
