@<TRIPOS>MOLECULE
2
 24 23 0 0 0
SMALL
GASTEIGER

@<TRIPOS>ATOM
      1 SI          3.3171    0.1789    5.9699 Si      1  UNL1        0.0000
      2 N           4.0013    0.3546    4.3852 N.3     1  UNL1        0.0000
      3 C           3.9672   -1.3695    6.8967 C.3     1  UNL1        0.0000
      4 H           3.6721   -1.3313    7.9406 H       1  UNL1        0.0000
      5 H           5.0529   -1.4285    6.8662 H       1  UNL1        0.0000
      6 H           3.5768   -2.2978    6.4891 H       1  UNL1        0.0000
      7 C           1.4090    0.1587    6.0867 C.3     1  UNL1        0.0000
      8 H           0.9895   -0.8326    5.9482 H       1  UNL1        0.0000
      9 H           0.9518    0.8205    5.3578 H       1  UNL1        0.0000
     10 H           1.1030    0.5023    7.0698 H       1  UNL1        0.0000
     11 C           3.7878   -0.5698    3.2795 C.3     1  UNL1        0.0000
     12 C           2.5561   -1.4674    3.4530 C.3     1  UNL1        0.0000
     13 H           2.4566   -2.1224    2.5897 H       1  UNL1        0.0000
     14 H           2.6468   -2.0866    4.3407 H       1  UNL1        0.0000
     15 H           1.6567   -0.8637    3.5328 H       1  UNL1        0.0000
     16 C           3.5929    0.2501    1.9921 C.3     1  UNL1        0.0000
     17 H           3.3513   -0.4043    1.1565 H       1  UNL1        0.0000
     18 H           2.7749    0.9595    2.1271 H       1  UNL1        0.0000
     19 H           4.5049    0.8009    1.7541 H       1  UNL1        0.0000
     20 C           5.0339   -1.4614    3.1364 C.3     1  UNL1        0.0000
     21 H           4.9346   -2.1310    2.2842 H       1  UNL1        0.0000
     22 H           5.9190   -0.8348    2.9901 H       1  UNL1        0.0000
     23 H           5.1664   -2.0612    4.0371 H       1  UNL1        0.0000
     24 H           3.7912    1.3799    6.7281 H       1  UNL1        0.0000
@<TRIPOS>BOND
     1    17    16    1
     2    19    16    1
     3    16    18    1
     4    16    11    1
     5    21    20    1
     6    13    12    1
     7    22    20    1
     8    20    11    1
     9    20    23    1
    10    11    12    1
    11    11     2    1
    12    12    15    1
    13    12    14    1
    14     2     1    1
    15     9     7    1
    16     8     7    1
    17     1     7    1
    18     1    24    1
    19     1     3    1
    20     7    10    1
    21     6     3    1
    22     5     3    1
    23     3     4    1
