@<TRIPOS>MOLECULE
27
 27 26 0 0 0
SMALL
GASTEIGER

@<TRIPOS>ATOM
      1 SI         -1.6505    5.5102   20.6988 Si      1  UNL1        0.0000
      2 SI         -4.5934    5.3120   21.4368 Si      1  UNL1        0.0000
      3 C          -0.6143    6.9666   20.0509 C.3     1  UNL1        0.0000
      4 H          -0.7307    7.0639   18.9793 H       1  UNL1        0.0000
      5 H           0.4418    6.8445   20.2561 H       1  UNL1        0.0000
      6 H          -0.9436    7.8966   20.5067 H       1  UNL1        0.0000
      7 C          -1.0839    5.0836   22.4762 C.3     1  UNL1        0.0000
      8 H          -0.0476    4.7608   22.4846 H       1  UNL1        0.0000
      9 H          -1.6802    4.2810   22.8958 H       1  UNL1        0.0000
     10 H          -1.1668    5.9372   23.1404 H       1  UNL1        0.0000
     11 C          -1.2898    3.9703   19.6211 C.3     1  UNL1        0.0000
     12 H          -1.8895    3.1216   19.9276 H       1  UNL1        0.0000
     13 H          -0.2465    3.6846   19.7092 H       1  UNL1        0.0000
     14 H          -1.4926    4.1546   18.5723 H       1  UNL1        0.0000
     15 C          -6.2072    5.8088   20.5397 C.3     1  UNL1        0.0000
     16 H          -5.9950    6.5338   19.7614 H       1  UNL1        0.0000
     17 H          -6.9246    6.2480   21.2234 H       1  UNL1        0.0000
     18 H          -6.6858    4.9511   20.0802 H       1  UNL1        0.0000
     19 C          -4.7547    5.7795   23.2852 C.3     1  UNL1        0.0000
     20 H          -3.8460    5.5515   23.8316 H       1  UNL1        0.0000
     21 H          -5.5646    5.2253   23.7505 H       1  UNL1        0.0000
     22 H          -4.9604    6.8355   23.4129 H       1  UNL1        0.0000
     23 C          -4.4613    3.4059   21.3801 C.3     1  UNL1        0.0000
     24 H          -4.4021    3.0348   20.3632 H       1  UNL1        0.0000
     25 H          -5.3293    2.9497   21.8460 H       1  UNL1        0.0000
     26 H          -3.5828    3.0563   21.9108 H       1  UNL1        0.0000
     27 N          -3.2809    6.0948   20.6236 N.3     1  UNL1        0.0000
@<TRIPOS>BOND
     1    14    11    1
     2     4     3    1
     3    11    13    1
     4    11    12    1
     5    11     1    1
     6    16    15    1
     7     3     5    1
     8     3     6    1
     9     3     1    1
    10    18    15    1
    11    24    23    1
    12    15    17    1
    13    15     2    1
    14    27     1    1
    15    27     2    1
    16     1     7    1
    17    23     2    1
    18    23    25    1
    19    23    26    1
    20     2    19    1
    21     7     8    1
    22     7     9    1
    23     7    10    1
    24    19    22    1
    25    19    21    1
    26    19    20    1
