@<TRIPOS>MOLECULE
27
 27 26 0 0 0
SMALL
GASTEIGER

@<TRIPOS>ATOM
      1 SI         -3.7622    9.8662   21.8247 Si      1  UNL1        0.0000
      2 SI         -1.6167   10.6840   19.8664 Si      1  UNL1        0.0000
      3 C          -5.5126    9.1336   21.6757 C.3     1  UNL1        0.0000
      4 H          -6.1790    9.7550   21.0899 H       1  UNL1        0.0000
      5 H          -5.9623    9.0132   22.6545 H       1  UNL1        0.0000
      6 H          -5.4517    8.1551   21.2136 H       1  UNL1        0.0000
      7 C          -2.7910    8.8050   23.0890 C.3     1  UNL1        0.0000
      8 H          -2.6921    7.7956   22.6955 H       1  UNL1        0.0000
      9 H          -3.2872    8.7491   24.0518 H       1  UNL1        0.0000
     10 H          -1.7942    9.1971   23.2573 H       1  UNL1        0.0000
     11 C          -3.9180   11.6550   22.4730 C.3     1  UNL1        0.0000
     12 H          -2.9456   12.0891   22.6730 H       1  UNL1        0.0000
     13 H          -4.4858   11.6771   23.3973 H       1  UNL1        0.0000
     14 H          -4.4252   12.2942   21.7594 H       1  UNL1        0.0000
     15 C          -0.2729   10.8176   21.2229 C.3     1  UNL1        0.0000
     16 H          -0.6795   11.2363   22.1374 H       1  UNL1        0.0000
     17 H           0.5387   11.4627   20.9003 H       1  UNL1        0.0000
     18 H           0.1544    9.8499   21.4648 H       1  UNL1        0.0000
     19 C          -0.8080    9.9420   18.3065 C.3     1  UNL1        0.0000
     20 H          -1.2683    8.9875   18.0813 H       1  UNL1        0.0000
     21 H           0.2530    9.7751   18.4531 H       1  UNL1        0.0000
     22 H          -0.9215   10.5907   17.4448 H       1  UNL1        0.0000
     23 C          -2.1714   12.4734   19.4715 C.3     1  UNL1        0.0000
     24 H          -3.0829   12.4979   18.8847 H       1  UNL1        0.0000
     25 H          -1.4035   12.9953   18.9090 H       1  UNL1        0.0000
     26 H          -2.3518   13.0379   20.3790 H       1  UNL1        0.0000
     27 N          -2.9590    9.6820   20.2983 N.3     1  UNL1        0.0000
@<TRIPOS>BOND
     1    22    19    1
     2    20    19    1
     3    19    21    1
     4    19     2    1
     5    24    23    1
     6    25    23    1
     7    23     2    1
     8    23    26    1
     9     2    27    1
    10     2    15    1
    11    27     1    1
    12    17    15    1
    13     4     3    1
    14     6     3    1
    15    15    18    1
    16    15    16    1
    17     3     1    1
    18     3     5    1
    19    14    11    1
    20     1    11    1
    21     1     7    1
    22    11    12    1
    23    11    13    1
    24     8     7    1
    25     7    10    1
    26     7     9    1
