@<TRIPOS>MOLECULE
1
 27 26 0 0 0
SMALL
GASTEIGER

@<TRIPOS>ATOM
      1 N          12.9235    7.3007    2.4569 N.3     1  UNL1        0.0000
      2 SI         12.5745    8.9366    2.0405 Si      1  UNL1        0.0000
      3 SI         14.5062    6.6028    2.3996 Si      1  UNL1        0.0000
      4 C          10.6772    9.1236    1.9780 C.3     1  UNL1        0.0000
      5 H          10.3098    9.1566    0.9595 H       1  UNL1        0.0000
      6 H          10.3440   10.0279    2.4761 H       1  UNL1        0.0000
      7 H          10.2191    8.2714    2.4707 H       1  UNL1        0.0000
      8 C          13.2065   10.1859    3.3515 C.3     1  UNL1        0.0000
      9 H          12.6495   10.1225    4.2794 H       1  UNL1        0.0000
     10 H          13.1018   11.2008    2.9795 H       1  UNL1        0.0000
     11 H          14.2528   10.0297    3.5846 H       1  UNL1        0.0000
     12 C          13.3333    9.5339    0.3858 C.3     1  UNL1        0.0000
     13 H          12.8786    9.0542   -0.4735 H       1  UNL1        0.0000
     14 H          14.3978    9.3257    0.3541 H       1  UNL1        0.0000
     15 H          13.2058   10.6055    0.2659 H       1  UNL1        0.0000
     16 C          15.9365    7.7801    2.8744 C.3     1  UNL1        0.0000
     17 H          15.8715    8.1052    3.9068 H       1  UNL1        0.0000
     18 H          15.9401    8.6648    2.2485 H       1  UNL1        0.0000
     19 H          16.8927    7.2832    2.7482 H       1  UNL1        0.0000
     20 C          14.8354    5.9285    0.6412 C.3     1  UNL1        0.0000
     21 H          14.0604    5.2069    0.4016 H       1  UNL1        0.0000
     22 H          15.7987    5.4349    0.5645 H       1  UNL1        0.0000
     23 H          14.8102    6.7133   -0.1070 H       1  UNL1        0.0000
     24 C          14.5353    5.1039    3.5730 C.3     1  UNL1        0.0000
     25 H          13.6864    4.4660    3.3567 H       1  UNL1        0.0000
     26 H          14.4804    5.4037    4.6117 H       1  UNL1        0.0000
     27 H          15.4413    4.5216    3.4486 H       1  UNL1        0.0000
@<TRIPOS>BOND
     1    13    12    1
     2    23    20    1
     3    15    12    1
     4    14    12    1
     5    12     2    1
     6    21    20    1
     7    22    20    1
     8    20     3    1
     9     5     4    1
    10     4     2    1
    11     4     7    1
    12     4     6    1
    13     2     1    1
    14     2     8    1
    15    18    16    1
    16     3     1    1
    17     3    16    1
    18     3    24    1
    19    19    16    1
    20    16    17    1
    21    10     8    1
    22     8    11    1
    23     8     9    1
    24    25    24    1
    25    27    24    1
    26    24    26    1
