@<TRIPOS>MOLECULE
1
 27 26 0 0 0
SMALL
GASTEIGER

@<TRIPOS>ATOM
      1 N          11.6567    4.2276    1.0614 N.3     1  UNL1        0.0000
      2 SI         11.2859    4.6443   -0.5788 Si      1  UNL1        0.0000
      3 SI         12.1930    2.6477    1.5073 Si      1  UNL1        0.0000
      4 C          11.2653    6.5433   -0.5400 C.3     1  UNL1        0.0000
      5 H          12.2383    6.9099   -0.2341 H       1  UNL1        0.0000
      6 H          10.5513    6.8925    0.1963 H       1  UNL1        0.0000
      7 H          11.0167    6.9842   -1.4984 H       1  UNL1        0.0000
      8 C          12.5788    4.0336   -1.8542 C.3     1  UNL1        0.0000
      9 H          13.5848    4.3605   -1.6193 H       1  UNL1        0.0000
     10 H          12.3393    4.4030   -2.8466 H       1  UNL1        0.0000
     11 H          12.5875    2.9499   -1.9041 H       1  UNL1        0.0000
     12 C           9.6331    3.9669   -1.2751 C.3     1  UNL1        0.0000
     13 H           8.7674    4.4440   -0.8335 H       1  UNL1        0.0000
     14 H           9.5452    2.8989   -1.1113 H       1  UNL1        0.0000
     15 H           9.5847    4.1369   -2.3464 H       1  UNL1        0.0000
     16 C          14.0298    2.2838    1.1149 C.3     1  UNL1        0.0000
     17 H          14.6870    3.0131    1.5734 H       1  UNL1        0.0000
     18 H          14.2128    2.3021    0.0461 H       1  UNL1        0.0000
     19 H          14.3168    1.3018    1.4794 H       1  UNL1        0.0000
     20 C          11.1734    1.2699    0.6577 C.3     1  UNL1        0.0000
     21 H          10.1112    1.3813    0.8487 H       1  UNL1        0.0000
     22 H          11.4719    0.2918    1.0216 H       1  UNL1        0.0000
     23 H          11.3192    1.2786   -0.4165 H       1  UNL1        0.0000
     24 C          11.9119    2.4711    3.3885 C.3     1  UNL1        0.0000
     25 H          12.8216    2.1860    3.9043 H       1  UNL1        0.0000
     26 H          11.1607    1.7224    3.6177 H       1  UNL1        0.0000
     27 H          11.5803    3.4237    3.7931 H       1  UNL1        0.0000
@<TRIPOS>BOND
     1    10     8    1
     2    15    12    1
     3    11     8    1
     4     8     9    1
     5     8     2    1
     6     7     4    1
     7    12    14    1
     8    12    13    1
     9    12     2    1
    10     2     4    1
    11     2     1    1
    12     4     5    1
    13     4     6    1
    14    23    20    1
    15    18    16    1
    16    20    21    1
    17    20    22    1
    18    20     3    1
    19     1     3    1
    20    16    19    1
    21    16     3    1
    22    16    17    1
    23     3    24    1
    24    24    26    1
    25    24    27    1
    26    24    25    1
