@<TRIPOS>MOLECULE
1
 23 24 0 0 0
SMALL
GASTEIGER

@<TRIPOS>ATOM
      1 N           2.3468   18.2234   17.6983 N.pl3   1  UNL1       -0.2150
      2 C           1.6844   17.0231   17.7972 C.ar    1  UNL1        0.0537
      3 C           0.6100   16.7675   16.9267 C.ar    1  UNL1       -0.0387
      4 H           0.3401   17.5418   16.2097 H       1  UNL1        0.0637
      5 C          -0.0753   15.5726   16.9497 C.ar    1  UNL1       -0.0599
      6 H          -0.8984   15.4153   16.2667 H       1  UNL1        0.0618
      7 C           0.2895   14.5685   17.8328 C.ar    1  UNL1       -0.0616
      8 H          -0.2505   13.6342   17.8576 H       1  UNL1        0.0618
      9 C           1.3793   14.7762   18.6629 C.ar    1  UNL1       -0.0599
     10 H           1.7028   13.9896   19.3309 H       1  UNL1        0.0618
     11 C           2.0708   15.9686   18.6470 C.ar    1  UNL1       -0.0387
     12 H           2.9396   16.0814   19.2790 H       1  UNL1        0.0637
     13 C           3.2651   18.5797   18.6784 C.ar    1  UNL1        0.0537
     14 C           3.0328   18.4173   20.0550 C.ar    1  UNL1       -0.0387
     15 H           2.1004   17.9802   20.3811 H       1  UNL1        0.0637
     16 C           3.9617   18.8391   20.9837 C.ar    1  UNL1       -0.0599
     17 H           3.7546   18.7120   22.0373 H       1  UNL1        0.0618
     18 C           5.1523   19.4251   20.5824 C.ar    1  UNL1       -0.0616
     19 H           5.8779   19.7451   21.3153 H       1  UNL1        0.0618
     20 C           5.3983   19.5971   19.2291 C.ar    1  UNL1       -0.0599
     21 H           6.3303   20.0435   18.9082 H       1  UNL1        0.0618
     22 C           4.4728   19.1873   18.2912 C.ar    1  UNL1       -0.0387
     23 H           4.6708   19.3069   17.2280 H       1  UNL1        0.0637
@<TRIPOS>BOND
     1     4     3    1
     2     6     5    1
     3     3     5   ar
     4     3     2   ar
     5     5     7   ar
     6    23    22    1
     7     1     2    1
     8     1    13    1
     9     2    11   ar
    10     7     8    1
    11     7     9   ar
    12    22    13   ar
    13    22    20   ar
    14    11     9   ar
    15    11    12    1
    16     9    10    1
    17    13    14   ar
    18    21    20    1
    19    20    18   ar
    20    14    15    1
    21    14    16   ar
    22    18    16   ar
    23    18    19    1
    24    16    17    1
