@<TRIPOS>MOLECULE
1
 47 50 0 0 0
SMALL
GASTEIGER

@<TRIPOS>ATOM
      1 N           0.7560    9.2550   15.0615 N.3     1  UNL1       -0.1719
      2 P          -0.1177    9.1309   13.6155 P.3     1  UNL1        0.0502
      3 P           0.6906   10.6581   15.9985 P.3     1  UNL1        0.0502
      4 C           0.5934   10.4131   12.5105 C.ar    1  UNL1       -0.0031
      5 C           1.6913   11.1899   12.8483 C.ar    1  UNL1       -0.0526
      6 H           2.1499   11.0785   13.8225 H       1  UNL1        0.0624
      7 C           2.1958   12.1100   11.9452 C.ar    1  UNL1       -0.0611
      8 H           3.0441   12.7214   12.2188 H       1  UNL1        0.0618
      9 C           1.6174   12.2445   10.6942 C.ar    1  UNL1       -0.0617
     10 H           2.0131   12.9613    9.9893 H       1  UNL1        0.0618
     11 C           0.5302   11.4567   10.3446 C.ar    1  UNL1       -0.0611
     12 H           0.0814   11.5592    9.3669 H       1  UNL1        0.0618
     13 C           0.0230   10.5425   11.2471 C.ar    1  UNL1       -0.0526
     14 H          -0.8280    9.9252   10.9892 H       1  UNL1        0.0624
     15 C          -1.7146    9.9984   13.9205 C.ar    1  UNL1       -0.0031
     16 C          -2.8620    9.2315   14.0967 C.ar    1  UNL1       -0.0526
     17 H          -2.8068    8.1541   14.0140 H       1  UNL1        0.0624
     18 C          -4.0646    9.8430   14.4066 C.ar    1  UNL1       -0.0611
     19 H          -4.9507    9.2415   14.5463 H       1  UNL1        0.0618
     20 C          -4.1277   11.2195   14.5437 C.ar    1  UNL1       -0.0617
     21 H          -5.0653   11.6967   14.7900 H       1  UNL1        0.0618
     22 C          -2.9878   11.9866   14.3634 C.ar    1  UNL1       -0.0611
     23 H          -3.0367   13.0611   14.4671 H       1  UNL1        0.0618
     24 C          -1.7847   11.3822   14.0482 C.ar    1  UNL1       -0.0526
     25 H          -0.8998   11.9844   13.8933 H       1  UNL1        0.0624
     26 C          -0.0601    9.9821   17.5444 C.ar    1  UNL1       -0.0031
     27 C          -1.3279    9.4124   17.3912 C.ar    1  UNL1       -0.0526
     28 H          -1.7406    9.2745   16.3971 H       1  UNL1        0.0624
     29 C          -2.1037    9.1038   18.4943 C.ar    1  UNL1       -0.0611
     30 H          -3.0900    8.6871   18.3522 H       1  UNL1        0.0618
     31 C          -1.6225    9.3494   19.7701 C.ar    1  UNL1       -0.0617
     32 H          -2.2315    9.1242   20.6332 H       1  UNL1        0.0618
     33 C          -0.3556    9.8853   19.9337 C.ar    1  UNL1       -0.0611
     34 H           0.0276   10.0684   20.9287 H       1  UNL1        0.0618
     35 C           0.4180   10.2087   18.8330 C.ar    1  UNL1       -0.0526
     36 H           1.3952   10.6467   18.9779 H       1  UNL1        0.0624
     37 C           2.4361   10.8339   16.5399 C.ar    1  UNL1       -0.0031
     38 C           2.7516   11.8871   17.3960 C.ar    1  UNL1       -0.0526
     39 H           1.9602   12.5356   17.7497 H       1  UNL1        0.0624
     40 C           4.0608   12.1142   17.7755 C.ar    1  UNL1       -0.0611
     41 H           4.2949   12.9253   18.4508 H       1  UNL1        0.0618
     42 C           5.0761   11.3149   17.2753 C.ar    1  UNL1       -0.0617
     43 H           6.1010   11.4976   17.5646 H       1  UNL1        0.0618
     44 C           4.7760   10.3005   16.3830 C.ar    1  UNL1       -0.0611
     45 H           5.5700    9.6976   15.9640 H       1  UNL1        0.0618
     46 C           3.4643   10.0635   16.0138 C.ar    1  UNL1       -0.0526
     47 H           3.2319    9.2868   15.2965 H       1  UNL1        0.0624
@<TRIPOS>BOND
     1    12    11    1
     2    10     9    1
     3    11     9   ar
     4    11    13   ar
     5     9     7   ar
     6    14    13    1
     7    13     4   ar
     8     7     8    1
     9     7     5   ar
    10     4     5   ar
    11     4     2    1
    12     5     6    1
    13     2    15    1
    14     2     1    1
    15    25    24    1
    16    15    24   ar
    17    15    16   ar
    18    17    16    1
    19    24    22   ar
    20    16    18   ar
    21    22    23    1
    22    22    20   ar
    23    18    20   ar
    24    18    19    1
    25    20    21    1
    26     1     3    1
    27    47    46    1
    28    45    44    1
    29     3    37    1
    30     3    26    1
    31    46    44   ar
    32    46    37   ar
    33    44    42   ar
    34    28    27    1
    35    37    38   ar
    36    42    43    1
    37    42    40   ar
    38    27    26   ar
    39    27    29   ar
    40    38    39    1
    41    38    40   ar
    42    26    35   ar
    43    40    41    1
    44    30    29    1
    45    29    31   ar
    46    35    36    1
    47    35    33   ar
    48    31    33   ar
    49    31    32    1
    50    33    34    1
