@<TRIPOS>MOLECULE
3
 47 50 0 0 0
SMALL
GASTEIGER

@<TRIPOS>ATOM
      1 P           3.9207   14.9823   16.1583 P.3     1  UNL1        0.0502
      2 P           6.3255   13.4050   15.6394 P.3     1  UNL1        0.0502
      3 N           5.5540   14.8982   15.7708 N.3     1  UNL1       -0.1719
      4 C           3.6615   13.8157   17.5466 C.ar    1  UNL1       -0.0031
      5 C           2.3715   13.3693   17.8191 C.ar    1  UNL1       -0.0526
      6 H           1.5638   13.6404   17.1510 H       1  UNL1        0.0624
      7 C           2.1301   12.5713   18.9210 C.ar    1  UNL1       -0.0611
      8 H           1.1292   12.2164   19.1220 H       1  UNL1        0.0618
      9 C           3.1713   12.2251   19.7683 C.ar    1  UNL1       -0.0617
     10 H           2.9819   11.5977   20.6271 H       1  UNL1        0.0618
     11 C           4.4517   12.6895   19.5169 C.ar    1  UNL1       -0.0611
     12 H           5.2614   12.4295   20.1836 H       1  UNL1        0.0618
     13 C           4.6935   13.4920   18.4168 C.ar    1  UNL1       -0.0526
     14 H           5.6875   13.8777   18.2259 H       1  UNL1        0.0624
     15 C           3.1832   13.9657   14.8032 C.ar    1  UNL1       -0.0031
     16 C           2.6970   14.6496   13.6940 C.ar    1  UNL1       -0.0526
     17 H           2.6601   15.7347   13.7076 H       1  UNL1        0.0624
     18 C           2.2861   13.9605   12.5672 C.ar    1  UNL1       -0.0611
     19 H           1.9032   14.5019   11.7129 H       1  UNL1        0.0618
     20 C           2.3760   12.5791   12.5363 C.ar    1  UNL1       -0.0617
     21 H           2.0652   12.0368   11.6552 H       1  UNL1        0.0618
     22 C           2.8733   11.8923   13.6324 C.ar    1  UNL1       -0.0611
     23 H           2.9541   10.8152   13.6022 H       1  UNL1        0.0618
     24 C           3.2742   12.5795   14.7633 C.ar    1  UNL1       -0.0526
     25 H           3.6639   12.0429   15.6183 H       1  UNL1        0.0624
     26 C           8.0295   14.0802   15.8801 C.ar    1  UNL1       -0.0031
     27 C           8.7407   13.7265   17.0202 C.ar    1  UNL1       -0.0526
     28 H           8.3219   12.9930   17.6968 H       1  UNL1        0.0624
     29 C           9.9710   14.3028   17.2869 C.ar    1  UNL1       -0.0611
     30 H          10.5168   14.0219   18.1762 H       1  UNL1        0.0618
     31 C          10.4982   15.2422   16.4171 C.ar    1  UNL1       -0.0617
     32 H          11.4536   15.6986   16.6287 H       1  UNL1        0.0618
     33 C           9.8069   15.5892   15.2663 C.ar    1  UNL1       -0.0611
     34 H          10.2294   16.3059   14.5769 H       1  UNL1        0.0618
     35 C           8.5762   15.0114   14.9956 C.ar    1  UNL1       -0.0526
     36 H           8.0784   15.2187   14.0477 H       1  UNL1        0.0624
     37 C           6.4745   13.1288   13.8172 C.ar    1  UNL1       -0.0031
     38 C           7.1868   11.9996   13.4220 C.ar    1  UNL1       -0.0526
     39 H           7.6701   11.3959   14.1792 H       1  UNL1        0.0624
     40 C           7.2775   11.6562   12.0878 C.ar    1  UNL1       -0.0611
     41 H           7.8375   10.7815   11.7896 H       1  UNL1        0.0618
     42 C           6.6372   12.4293   11.1315 C.ar    1  UNL1       -0.0617
     43 H           6.6948   12.1564   10.0879 H       1  UNL1        0.0618
     44 C           5.9214   13.5496   11.5153 C.ar    1  UNL1       -0.0611
     45 H           5.4213   14.1521   10.7716 H       1  UNL1        0.0618
     46 C           5.8435   13.9022   12.8526 C.ar    1  UNL1       -0.0526
     47 H           5.2743   14.7820   13.1473 H       1  UNL1        0.0624
@<TRIPOS>BOND
     1    43    42    1
     2    45    44    1
     3    42    44   ar
     4    42    40   ar
     5    44    46   ar
     6    21    20    1
     7    19    18    1
     8    41    40    1
     9    40    38   ar
    10    20    18   ar
    11    20    22   ar
    12    18    16   ar
    13    46    47    1
    14    46    37   ar
    15    38    37   ar
    16    38    39    1
    17    23    22    1
    18    22    24   ar
    19    16    17    1
    20    16    15   ar
    21    37     2    1
    22    36    35    1
    23    34    33    1
    24    24    15   ar
    25    24    25    1
    26    15     1    1
    27    35    33   ar
    28    35    26   ar
    29    33    31   ar
    30     2     3    1
    31     2    26    1
    32     3     1    1
    33    26    27   ar
    34     1     4    1
    35    31    32    1
    36    31    29   ar
    37    27    29   ar
    38    27    28    1
    39     6     5    1
    40    29    30    1
    41     4     5   ar
    42     4    13   ar
    43     5     7   ar
    44    14    13    1
    45    13    11   ar
    46     7     8    1
    47     7     9   ar
    48    11     9   ar
    49    11    12    1
    50     9    10    1
