@<TRIPOS>MOLECULE
3
 47 50 0 0 0
SMALL
GASTEIGER

@<TRIPOS>ATOM
      1 P           0.1257   19.5944   13.4053 P.3     1  UNL1        0.0502
      2 P          -1.7233   20.0229   15.6653 P.3     1  UNL1        0.0502
      3 N          -0.1697   19.8482   15.0380 N.3     1  UNL1       -0.1719
      4 C          -1.0966   18.3445   12.8410 C.ar    1  UNL1       -0.0031
      5 C          -1.6477   17.4160   13.7129 C.ar    1  UNL1       -0.0526
      6 H          -1.4105   17.4696   14.7677 H       1  UNL1        0.0624
      7 C          -2.5021   16.4349   13.2427 C.ar    1  UNL1       -0.0611
      8 H          -2.9379   15.7234   13.9298 H       1  UNL1        0.0618
      9 C          -2.7971   16.3616   11.8919 C.ar    1  UNL1       -0.0617
     10 H          -3.4639   15.5954   11.5236 H       1  UNL1        0.0618
     11 C          -2.2343   17.2733   11.0121 C.ar    1  UNL1       -0.0611
     12 H          -2.4622   17.2161    9.9568 H       1  UNL1        0.0618
     13 C          -1.3857   18.2569   11.4820 C.ar    1  UNL1       -0.0526
     14 H          -0.9478   18.9744   10.8004 H       1  UNL1        0.0624
     15 C          -0.7011   21.0310   12.5739 C.ar    1  UNL1       -0.0031
     16 C          -2.0526   21.2977   12.7607 C.ar    1  UNL1       -0.0526
     17 H          -2.6639   20.5953   13.3135 H       1  UNL1        0.0624
     18 C          -2.6159   22.4484   12.2434 C.ar    1  UNL1       -0.0611
     19 H          -3.6649   22.6526   12.4027 H       1  UNL1        0.0618
     20 C          -1.8388   23.3395   11.5197 C.ar    1  UNL1       -0.0617
     21 H          -2.2807   24.2407   11.1193 H       1  UNL1        0.0618
     22 C          -0.4995   23.0666   11.3020 C.ar    1  UNL1       -0.0611
     23 H           0.1070   23.7508   10.7242 H       1  UNL1        0.0618
     24 C           0.0655   21.9180   11.8292 C.ar    1  UNL1       -0.0526
     25 H           1.1079   21.6923   11.6522 H       1  UNL1        0.0624
     26 C          -1.3619   19.4460   17.3838 C.ar    1  UNL1       -0.0031
     27 C          -1.9872   18.2858   17.8252 C.ar    1  UNL1       -0.0526
     28 H          -2.6902   17.7871   17.1713 H       1  UNL1        0.0624
     29 C          -1.7215   17.7744   19.0824 C.ar    1  UNL1       -0.0611
     30 H          -2.2044   16.8664   19.4119 H       1  UNL1        0.0618
     31 C          -0.8350   18.4322   19.9167 C.ar    1  UNL1       -0.0617
     32 H          -0.6316   18.0409   20.9029 H       1  UNL1        0.0618
     33 C          -0.2227   19.6029   19.4971 C.ar    1  UNL1       -0.0611
     34 H           0.4349   20.1329   20.1711 H       1  UNL1        0.0618
     35 C          -0.4723   20.1086   18.2299 C.ar    1  UNL1       -0.0526
     36 H          -0.0529   21.0706   17.9340 H       1  UNL1        0.0624
     37 C          -1.7821   21.8258   16.0522 C.ar    1  UNL1       -0.0031
     38 C          -2.8752   22.3076   16.7663 C.ar    1  UNL1       -0.0526
     39 H          -3.5973   21.6038   17.1598 H       1  UNL1        0.0624
     40 C          -3.0336   23.6643   16.9712 C.ar    1  UNL1       -0.0611
     41 H          -3.8805   24.0325   17.5328 H       1  UNL1        0.0618
     42 C          -2.1137   24.5564   16.4413 C.ar    1  UNL1       -0.0617
     43 H          -2.2458   25.6190   16.5861 H       1  UNL1        0.0618
     44 C          -1.0271   24.0853   15.7238 C.ar    1  UNL1       -0.0611
     45 H          -0.3129   24.7809   15.3061 H       1  UNL1        0.0618
     46 C          -0.8588   22.7245   15.5370 C.ar    1  UNL1       -0.0526
     47 H          -0.0062   22.3455   14.9799 H       1  UNL1        0.0624
@<TRIPOS>BOND
     1    12    11    1
     2    23    22    1
     3    14    13    1
     4    11    13   ar
     5    11     9   ar
     6    21    20    1
     7    22    20   ar
     8    22    24   ar
     9    13     4   ar
    10    20    18   ar
    11    10     9    1
    12    25    24    1
    13    24    15   ar
    14     9     7   ar
    15    18    19    1
    16    18    16   ar
    17    15    16   ar
    18    15     1    1
    19    16    17    1
    20     4     1    1
    21     4     5   ar
    22     7     5   ar
    23     7     8    1
    24     1     3    1
    25     5     6    1
    26    47    46    1
    27     3     2    1
    28    45    44    1
    29    46    44   ar
    30    46    37   ar
    31     2    37    1
    32     2    26    1
    33    44    42   ar
    34    37    38   ar
    35    42    43    1
    36    42    40   ar
    37    38    40   ar
    38    38    39    1
    39    40    41    1
    40    28    27    1
    41    26    27   ar
    42    26    35   ar
    43    27    29   ar
    44    36    35    1
    45    35    33   ar
    46    29    30    1
    47    29    31   ar
    48    33    31   ar
    49    33    34    1
    50    31    32    1
