@<TRIPOS>MOLECULE
1
 27 26 0 0 0
SMALL
GASTEIGER

@<TRIPOS>ATOM
      1 N           0.3389    0.5173    3.2558 N.3     1  UNL1        0.0000
      2 SI         -1.2227   -0.1896    3.5695 Si      1  UNL1        0.0000
      3 C          -2.5853    1.1519    3.6283 C.3     1  UNL1        0.0000
      4 C          -1.7209   -1.4139    2.1840 C.3     1  UNL1        0.0000
      5 C          -1.2191   -1.0762    5.2674 C.3     1  UNL1        0.0000
      6 SI          1.8465   -0.3473    3.0611 Si      1  UNL1        0.0000
      7 C           1.6538   -2.2530    2.9661 C.3     1  UNL1        0.0000
      8 C           2.9196    0.0881    4.5794 C.3     1  UNL1        0.0000
      9 C           2.6290    0.2517    1.4286 C.3     1  UNL1        0.0000
     10 H          -2.6418    1.7066    2.6928 H       1  UNL1        0.0000
     11 H          -2.4190    1.8590    4.4397 H       1  UNL1        0.0000
     12 H          -3.5632    0.7040    3.7932 H       1  UNL1        0.0000
     13 H          -1.4767   -1.0074    1.2075 H       1  UNL1        0.0000
     14 H          -2.7896   -1.6023    2.2100 H       1  UNL1        0.0000
     15 H          -1.2145   -2.3662    2.2882 H       1  UNL1        0.0000
     16 H          -0.5734   -1.9477    5.2655 H       1  UNL1        0.0000
     17 H          -2.2193   -1.4026    5.5348 H       1  UNL1        0.0000
     18 H          -0.8658   -0.4016    6.0419 H       1  UNL1        0.0000
     19 H           2.6340   -2.7173    2.9823 H       1  UNL1        0.0000
     20 H           1.0872   -2.6509    3.7997 H       1  UNL1        0.0000
     21 H           1.1620   -2.5588    2.0499 H       1  UNL1        0.0000
     22 H           3.9124   -0.3473    4.5284 H       1  UNL1        0.0000
     23 H           3.0164    1.1705    4.6140 H       1  UNL1        0.0000
     24 H           2.4526   -0.2328    5.5070 H       1  UNL1        0.0000
     25 H           1.9733    0.0689    0.5807 H       1  UNL1        0.0000
     26 H           3.5880   -0.2142    1.2263 H       1  UNL1        0.0000
     27 H           2.7706    1.3264    1.5089 H       1  UNL1        0.0000
@<TRIPOS>BOND
     1    25     9    1
     2    13     4    1
     3    26     9    1
     4     9    27    1
     5     9     6    1
     6    21     7    1
     7     4    14    1
     8     4    15    1
     9     4     2    1
    10    10     3    1
    11     7    19    1
    12     7     6    1
    13     7    20    1
    14     6     1    1
    15     6     8    1
    16     1     2    1
    17     2     3    1
    18     2     5    1
    19     3    12    1
    20     3    11    1
    21    22     8    1
    22     8    23    1
    23     8    24    1
    24    16     5    1
    25     5    17    1
    26     5    18    1
