@<TRIPOS>MOLECULE
5
 43 42 0 0 0
SMALL
GASTEIGER

@<TRIPOS>ATOM
      1 P           0.9965    5.2421    6.5320 P.3     1  UNL1        0.0000
      2 P           5.4127    5.0888    3.3641 P.3     1  UNL1        0.0000
      3 SI          0.8396    7.1032    4.1079 Si      1  UNL1        0.0000
      4 SI          2.4843    5.4207    2.2009 Si      1  UNL1        0.0000
      5 N           2.0295    5.9307    3.7638 N.3     1  UNL1        0.0000
      6 C           0.4368    6.9005    5.9858 C.3     1  UNL1        0.0000
      7 C           4.1137    4.3964    2.2701 C.3     1  UNL1        0.0000
      8 C           0.3574    5.2302    8.2732 C.3     1  UNL1        0.0000
      9 C          -0.3349    4.2192    5.7619 C.3     1  UNL1        0.0000
     10 C           6.7434    3.8376    3.0212 C.3     1  UNL1        0.0000
     11 C           6.0471    6.4400    2.2679 C.3     1  UNL1        0.0000
     12 C          -0.8117    6.9087    3.1531 C.3     1  UNL1        0.0000
     13 C           1.3839    8.9176    3.7896 C.3     1  UNL1        0.0000
     14 C           2.7049    6.8537    0.9402 C.3     1  UNL1        0.0000
     15 C           1.2105    4.2192    1.4106 C.3     1  UNL1        0.0000
     16 H          -0.6290    7.0190    6.1919 H       1  UNL1        0.0000
     17 H           0.9772    7.6476    6.5683 H       1  UNL1        0.0000
     18 H           4.5256    4.2730    1.2656 H       1  UNL1        0.0000
     19 H           3.8842    3.4023    2.6587 H       1  UNL1        0.0000
     20 H           0.4422    4.2240    8.6802 H       1  UNL1        0.0000
     21 H           0.9587    5.8991    8.8853 H       1  UNL1        0.0000
     22 H          -0.6847    5.5473    8.3083 H       1  UNL1        0.0000
     23 H          -0.2665    3.1959    6.1291 H       1  UNL1        0.0000
     24 H          -1.3186    4.6226    6.0029 H       1  UNL1        0.0000
     25 H          -0.1961    4.2211    4.6828 H       1  UNL1        0.0000
     26 H           7.6799    4.1725    3.4644 H       1  UNL1        0.0000
     27 H           6.4605    2.8909    3.4777 H       1  UNL1        0.0000
     28 H           6.8818    3.6986    1.9495 H       1  UNL1        0.0000
     29 H           6.9708    6.8390    2.6852 H       1  UNL1        0.0000
     30 H           6.2386    6.0730    1.2598 H       1  UNL1        0.0000
     31 H           5.3093    7.2380    2.2304 H       1  UNL1        0.0000
     32 H          -0.6357    7.0502    2.0929 H       1  UNL1        0.0000
     33 H          -1.2585    5.9293    3.2817 H       1  UNL1        0.0000
     34 H          -1.5413    7.6492    3.4644 H       1  UNL1        0.0000
     35 H           1.2523    9.1617    2.7412 H       1  UNL1        0.0000
     36 H           0.8011    9.6302    4.3651 H       1  UNL1        0.0000
     37 H           2.4312    9.0683    4.0313 H       1  UNL1        0.0000
     38 H           1.7326    7.1627    0.5724 H       1  UNL1        0.0000
     39 H           3.1656    7.7237    1.3962 H       1  UNL1        0.0000
     40 H           3.3031    6.5679    0.0813 H       1  UNL1        0.0000
     41 H           0.2474    4.7049    1.3063 H       1  UNL1        0.0000
     42 H           1.5241    3.8983    0.4227 H       1  UNL1        0.0000
     43 H           1.0660    3.3280    2.0131 H       1  UNL1        0.0000
@<TRIPOS>BOND
     1    40    14    1
     2    42    15    1
     3    38    14    1
     4    14    39    1
     5    14     4    1
     6    30    11    1
     7    18     7    1
     8    41    15    1
     9    15    43    1
    10    15     4    1
    11    28    10    1
    12    32    12    1
    13     4     7    1
    14     4     5    1
    15    31    11    1
    16    11    29    1
    17    11     2    1
    18     7    19    1
    19     7     2    1
    20    35    13    1
    21    10     2    1
    22    10    26    1
    23    10    27    1
    24    12    33    1
    25    12    34    1
    26    12     3    1
    27     5     3    1
    28    13    37    1
    29    13     3    1
    30    13    36    1
    31     3     6    1
    32    25     9    1
    33     9    24    1
    34     9    23    1
    35     9     1    1
    36     6    16    1
    37     6     1    1
    38     6    17    1
    39     1     8    1
    40     8    22    1
    41     8    20    1
    42     8    21    1
