@<TRIPOS>MOLECULE
5
 21 20 0 0 0
SMALL
GASTEIGER

@<TRIPOS>ATOM
      1 SI          3.0702   10.4006    9.1019 Si      1  UNL1        0.0000
      2 H           1.6822    9.8828    8.8903 H       1  UNL1        0.0000
      3 SI          5.0530   10.1160   11.3021 Si      1  UNL1        0.0000
      4 H           4.5837   11.0982   12.3216 H       1  UNL1        0.0000
      5 N           3.7750    9.4668   10.3581 N.3     1  UNL1        0.0000
      6 C           5.8513    8.6440   12.2357 C.3     1  UNL1        0.0000
      7 H           5.4137    7.6893   11.9119 H       1  UNL1        0.0000
      8 H           5.6902    8.7361   13.3049 H       1  UNL1        0.0000
      9 H           6.9227    8.5904   12.0729 H       1  UNL1        0.0000
     10 C           6.4373   11.0475   10.3788 C.3     1  UNL1        0.0000
     11 H           7.0030   10.4121    9.7064 H       1  UNL1        0.0000
     12 H           7.1377   11.4867   11.0825 H       1  UNL1        0.0000
     13 H           6.0186   11.8550    9.7890 H       1  UNL1        0.0000
     14 C           2.8652   12.2452    9.5359 C.3     1  UNL1        0.0000
     15 H           2.4011   12.3749   10.5084 H       1  UNL1        0.0000
     16 H           2.2522   12.7607    8.8037 H       1  UNL1        0.0000
     17 H           3.8267   12.7448    9.5708 H       1  UNL1        0.0000
     18 C           3.9541   10.2969    7.4186 C.3     1  UNL1        0.0000
     19 H           4.9714   10.6713    7.4758 H       1  UNL1        0.0000
     20 H           3.4285   10.8868    6.6740 H       1  UNL1        0.0000
     21 H           3.9925    9.2733    7.0597 H       1  UNL1        0.0000
@<TRIPOS>BOND
     1    20    18    1
     2    21    18    1
     3    18    19    1
     4    18     1    1
     5    16    14    1
     6     2     1    1
     7     1    14    1
     8     1     5    1
     9    14    17    1
    10    14    15    1
    11    11    10    1
    12    13    10    1
    13     5     3    1
    14    10    12    1
    15    10     3    1
    16     3     6    1
    17     3     4    1
    18     7     6    1
    19     9     6    1
    20     6     8    1
