@<TRIPOS>MOLECULE
5
 40 41 0 0 0
SMALL
GASTEIGER

@<TRIPOS>ATOM
      1 SI          1.8376    5.2944    2.7150 Si      1  UNL1        0.0000
      2 SI          1.3477    3.0846    0.8539 Si      1  UNL1        0.0000
      3 SI          4.5928    2.9924    3.1998 Si      1  UNL1        0.0000
      4 N           2.0384    3.5686    2.3994 N.3     1  UNL1        0.0000
      5 N           2.8709    2.7366    3.1642 N.3     1  UNL1        0.0000
      6 C           1.6806    5.8113    4.5309 C.3     1  UNL1        0.0000
      7 H           0.8690    5.3039    5.0386 H       1  UNL1        0.0000
      8 H           1.4896    6.8783    4.5854 H       1  UNL1        0.0000
      9 H           2.5989    5.6170    5.0736 H       1  UNL1        0.0000
     10 C           3.2090    6.3107    1.8633 C.3     1  UNL1        0.0000
     11 H           4.0922    6.3861    2.4899 H       1  UNL1        0.0000
     12 H           2.8658    7.3205    1.6600 H       1  UNL1        0.0000
     13 H           3.5084    5.8661    0.9192 H       1  UNL1        0.0000
     14 C           6.0801    5.3827    3.7284 C.ar    1  UNL1        0.0000
     15 H           6.3798    5.3082    2.6918 H       1  UNL1        0.0000
     16 C           6.5691    6.4179    4.5050 C.ar    1  UNL1        0.0000
     17 H           7.2361    7.1502    4.0720 H       1  UNL1        0.0000
     18 C           5.3650    5.5620    6.3880 C.ar    1  UNL1        0.0000
     19 H           5.0905    5.6148    7.4317 H       1  UNL1        0.0000
     20 C           6.2082    6.5129    5.8390 C.ar    1  UNL1        0.0000
     21 H           6.5902    7.3196    6.4478 H       1  UNL1        0.0000
     22 C           2.6475    2.8312   -0.5247 C.3     1  UNL1        0.0000
     23 H           2.7351    3.7212   -1.1402 H       1  UNL1        0.0000
     24 H           2.3744    2.0105   -1.1794 H       1  UNL1        0.0000
     25 H           3.6291    2.6164   -0.1170 H       1  UNL1        0.0000
     26 C           0.2523    1.5554    1.1418 C.3     1  UNL1        0.0000
     27 H           0.5545    1.0517    2.0693 H       1  UNL1        0.0000
     28 H           0.3286    0.8474    0.3241 H       1  UNL1        0.0000
     29 H          -0.7942    1.8255    1.2359 H       1  UNL1        0.0000
     30 C           0.3065    4.6429    0.4898 C.3     1  UNL1        0.0000
     31 H           0.8115    5.2407   -0.2677 H       1  UNL1        0.0000
     32 H          -0.6767    4.4063    0.0848 H       1  UNL1        0.0000
     33 C           0.1885    5.4668    1.7725 C.3     1  UNL1        0.0000
     34 H          -0.6323    5.0788    2.3759 H       1  UNL1        0.0000
     35 H          -0.0575    6.5028    1.5456 H       1  UNL1        0.0000
     36 C           5.2176    4.4264    4.2582 C.ar    1  UNL1        0.0000
     37 C           4.8769    4.5325    5.6028 C.ar    1  UNL1        0.0000
     38 H           4.2399    3.7848    6.0471 H       1  UNL1        0.0000
     39 H           5.1202    1.7016    3.6421 H       1  UNL1        0.0000
     40 H           5.0082    3.2881    1.8127 H       1  UNL1        0.0000
@<TRIPOS>BOND
     1    24    22    1
     2    23    22    1
     3    22    25    1
     4    22     2    1
     5    31    30    1
     6    32    30    1
     7    28    26    1
     8    30     2    1
     9    30    33    1
    10     2    26    1
    11     2     4    1
    12    13    10    1
    13    26    29    1
    14    26    27    1
    15    35    33    1
    16    12    10    1
    17    33    34    1
    18    33     1    1
    19    40     3    1
    20    10    11    1
    21    10     1    1
    22     4     1    1
    23     4     5    1
    24    15    14    1
    25     1     6    1
    26     5     3    1
    27     3    39    1
    28     3    36    1
    29    14    36   ar
    30    14    16   ar
    31    17    16    1
    32    36    37   ar
    33    16    20   ar
    34     6     8    1
    35     6     7    1
    36     6     9    1
    37    37    38    1
    38    37    18   ar
    39    20    18   ar
    40    20    21    1
    41    18    19    1
