@<TRIPOS>MOLECULE
1
 23 24 0 0 0
SMALL
GASTEIGER

@<TRIPOS>ATOM
      1 N           6.1803    3.9495   10.5248 N.pl3   1  UNL1       -0.2150
      2 C           6.7749    4.5821    9.4533 C.ar    1  UNL1        0.0537
      3 C           6.8228    5.9868    9.3910 C.ar    1  UNL1       -0.0387
      4 C           7.3540    6.6252    8.2880 C.ar    1  UNL1       -0.0599
      5 C           7.8643    5.8997    7.2213 C.ar    1  UNL1       -0.0616
      6 C           7.8362    4.5155    7.2739 C.ar    1  UNL1       -0.0599
      7 C           7.3026    3.8622    8.3665 C.ar    1  UNL1       -0.0387
      8 C           6.5933    2.6531   10.8235 C.ar    1  UNL1        0.0537
      9 C           5.6624    1.6169   10.9621 C.ar    1  UNL1       -0.0387
     10 C           6.0783    0.3382   11.2831 C.ar    1  UNL1       -0.0599
     11 C           7.4222    0.0595   11.4743 C.ar    1  UNL1       -0.0616
     12 C           8.3552    1.0730   11.3226 C.ar    1  UNL1       -0.0599
     13 C           7.9527    2.3517   10.9923 C.ar    1  UNL1       -0.0387
     14 H           6.4423    6.5562   10.2324 H       1  UNL1        0.0637
     15 H           7.3857    7.7058    8.2633 H       1  UNL1        0.0618
     16 H           8.2838    6.4056    6.3653 H       1  UNL1        0.0618
     17 H           8.2304    3.9365    6.4508 H       1  UNL1        0.0618
     18 H           7.2739    2.7806    8.3873 H       1  UNL1        0.0637
     19 H           4.6164    1.8335   10.7856 H       1  UNL1        0.0637
     20 H           5.3506   -0.4568   11.3691 H       1  UNL1        0.0618
     21 H           7.7410   -0.9407   11.7260 H       1  UNL1        0.0618
     22 H           9.4067    0.8632   11.4584 H       1  UNL1        0.0618
     23 H           8.6849    3.1373   10.8610 H       1  UNL1        0.0637
@<TRIPOS>BOND
     1    16     5    1
     2    17     6    1
     3     5     6   ar
     4     5     4   ar
     5     6     7   ar
     6    15     4    1
     7     4     3   ar
     8     7    18    1
     9     7     2   ar
    10     3     2   ar
    11     3    14    1
    12     2     1    1
    13     1     8    1
    14    19     9    1
    15     8     9   ar
    16     8    13   ar
    17    23    13    1
    18     9    10   ar
    19    13    12   ar
    20    10    20    1
    21    10    11   ar
    22    12    22    1
    23    12    11   ar
    24    11    21    1
