@<TRIPOS>MOLECULE
1
 23 24 0 0 0
SMALL
GASTEIGER

@<TRIPOS>ATOM
      1 N           4.7185   10.5026   12.1795 N.pl3   1  UNL1       -0.2150
      2 C           5.3289    9.4949   12.9160 C.ar    1  UNL1        0.0537
      3 C           5.5557    9.6384   14.2896 C.ar    1  UNL1       -0.0387
      4 C           6.2241    8.6604   15.0011 C.ar    1  UNL1       -0.0599
      5 C           6.6621    7.5073   14.3697 C.ar    1  UNL1       -0.0616
      6 C           6.4137    7.3346   13.0168 C.ar    1  UNL1       -0.0599
      7 C           5.7569    8.3110   12.2955 C.ar    1  UNL1       -0.0387
      8 C           3.7147   10.1212   11.3130 C.ar    1  UNL1        0.0537
      9 C           2.7958    9.1179   11.6679 C.ar    1  UNL1       -0.0387
     10 C           1.7666    8.7673   10.8195 C.ar    1  UNL1       -0.0599
     11 C           1.6182    9.3945    9.5919 C.ar    1  UNL1       -0.0616
     12 C           2.5266   10.3734    9.2196 C.ar    1  UNL1       -0.0599
     13 C           3.5636   10.7316   10.0590 C.ar    1  UNL1       -0.0387
     14 H           5.1728   10.5182   14.7901 H       1  UNL1        0.0637
     15 H           6.3970    8.7963   16.0591 H       1  UNL1        0.0618
     16 H           7.1829    6.7442   14.9284 H       1  UNL1        0.0618
     17 H           6.7401    6.4320   12.5193 H       1  UNL1        0.0618
     18 H           5.5652    8.1767   11.2377 H       1  UNL1        0.0637
     19 H           2.9026    8.6267   12.6265 H       1  UNL1        0.0637
     20 H           1.0682    7.9990   11.1197 H       1  UNL1        0.0618
     21 H           0.8093    9.1194    8.9322 H       1  UNL1        0.0618
     22 H           2.4295   10.8552    8.2560 H       1  UNL1        0.0618
     23 H           4.2906   11.4722    9.7506 H       1  UNL1        0.0637
@<TRIPOS>BOND
     1    22    12    1
     2    21    11    1
     3    12    11   ar
     4    12    13   ar
     5    11    10   ar
     6    23    13    1
     7    13     8   ar
     8    10    20    1
     9    10     9   ar
    10    18     7    1
    11     8     9   ar
    12     8     1    1
    13     9    19    1
    14     1     2    1
    15     7     2   ar
    16     7     6   ar
    17    17     6    1
    18     2     3   ar
    19     6     5   ar
    20     3    14    1
    21     3     4   ar
    22     5    16    1
    23     5     4   ar
    24     4    15    1
