@<TRIPOS>MOLECULE
1
 23 24 0 0 0
SMALL
GASTEIGER

@<TRIPOS>ATOM
      1 N           3.6781   11.4893    6.6698 N.pl3   1  UNL1       -0.2150
      2 C           4.6778   11.7794    7.5959 C.ar    1  UNL1        0.0537
      3 C           5.3043   13.0343    7.5912 C.ar    1  UNL1       -0.0387
      4 C           6.3296   13.3136    8.4724 C.ar    1  UNL1       -0.0599
      5 C           6.7556   12.3555    9.3793 C.ar    1  UNL1       -0.0616
      6 C           6.1275   11.1209    9.4135 C.ar    1  UNL1       -0.0599
      7 C           5.0933   10.8361    8.5416 C.ar    1  UNL1       -0.0387
      8 C           2.6463   12.4028    6.5760 C.ar    1  UNL1        0.0537
      9 C           2.0564   12.7142    5.3425 C.ar    1  UNL1       -0.0387
     10 C           0.9979   13.5992    5.2692 C.ar    1  UNL1       -0.0599
     11 C           0.5033   14.2092    6.4115 C.ar    1  UNL1       -0.0616
     12 C           1.0911   13.9289    7.6354 C.ar    1  UNL1       -0.0599
     13 C           2.1461   13.0448    7.7221 C.ar    1  UNL1       -0.0387
     14 H           4.9682   13.7828    6.8835 H       1  UNL1        0.0637
     15 H           6.8035   14.2847    8.4506 H       1  UNL1        0.0618
     16 H           7.5617   12.5750   10.0627 H       1  UNL1        0.0618
     17 H           6.4385   10.3768   10.1325 H       1  UNL1        0.0618
     18 H           4.5705    9.8905    8.5992 H       1  UNL1        0.0637
     19 H           2.4617   12.2681    4.4436 H       1  UNL1        0.0637
     20 H           0.5583   13.8266    4.3077 H       1  UNL1        0.0618
     21 H          -0.3244   14.8991    6.3484 H       1  UNL1        0.0618
     22 H           0.7193   14.4025    8.5327 H       1  UNL1        0.0618
     23 H           2.5974   12.8285    8.6816 H       1  UNL1        0.0637
@<TRIPOS>BOND
     1    20    10    1
     2    19     9    1
     3    10     9   ar
     4    10    11   ar
     5     9     8   ar
     6    21    11    1
     7    11    12   ar
     8     8     1    1
     9     8    13   ar
    10     1     2    1
    11    14     3    1
    12     3     2   ar
    13     3     4   ar
    14     2     7   ar
    15    12    13   ar
    16    12    22    1
    17    13    23    1
    18    15     4    1
    19     4     5   ar
    20     7    18    1
    21     7     6   ar
    22     5     6   ar
    23     5    16    1
    24     6    17    1
