@<TRIPOS>MOLECULE
1
 23 24 0 0 0
SMALL
GASTEIGER

@<TRIPOS>ATOM
      1 N           6.3125   -2.1764    5.8400 N.pl3   1  UNL1       -0.2150
      2 C           6.7267   -2.6069    7.0817 C.ar    1  UNL1        0.0537
      3 C           8.0453   -2.3571    7.5049 C.ar    1  UNL1       -0.0387
      4 C           8.4619   -2.7186    8.7717 C.ar    1  UNL1       -0.0599
      5 C           7.5887   -3.3359    9.6545 C.ar    1  UNL1       -0.0616
      6 C           6.2876   -3.5953    9.2505 C.ar    1  UNL1       -0.0599
      7 C           5.8587   -3.2431    7.9877 C.ar    1  UNL1       -0.0387
      8 C           5.4055   -2.9207    5.1215 C.ar    1  UNL1        0.0537
      9 C           5.3884   -4.3249    5.1623 C.ar    1  UNL1       -0.0387
     10 C           4.5061   -5.0412    4.3801 C.ar    1  UNL1       -0.0599
     11 C           3.6199   -4.3913    3.5356 C.ar    1  UNL1       -0.0616
     12 C           3.6309   -3.0056    3.4797 C.ar    1  UNL1       -0.0599
     13 C           4.5057   -2.2765    4.2585 C.ar    1  UNL1       -0.0387
     14 H           8.7404   -1.9090    6.7993 H       1  UNL1        0.0637
     15 H           9.4828   -2.5274    9.0732 H       1  UNL1        0.0618
     16 H           7.9193   -3.6170   10.6429 H       1  UNL1        0.0618
     17 H           5.5992   -4.0765    9.9313 H       1  UNL1        0.0618
     18 H           4.8392   -3.4426    7.6831 H       1  UNL1        0.0637
     19 H           6.0899   -4.8423    5.8034 H       1  UNL1        0.0637
     20 H           4.5137   -6.1213    4.4248 H       1  UNL1        0.0618
     21 H           2.9320   -4.9582    2.9264 H       1  UNL1        0.0618
     22 H           2.9426   -2.4912    2.8227 H       1  UNL1        0.0618
     23 H           4.5175   -1.1923    4.2264 H       1  UNL1        0.0637
@<TRIPOS>BOND
     1    22    12    1
     2    21    11    1
     3    12    11   ar
     4    12    13   ar
     5    11    10   ar
     6    23    13    1
     7    13     8   ar
     8    10    20    1
     9    10     9   ar
    10     8     9   ar
    11     8     1    1
    12     9    19    1
    13     1     2    1
    14    14     3    1
    15     2     3   ar
    16     2     7   ar
    17     3     4   ar
    18    18     7    1
    19     7     6   ar
    20     4    15    1
    21     4     5   ar
    22     6     5   ar
    23     6    17    1
    24     5    16    1
