@<TRIPOS>MOLECULE
1
 11 11 0 0 0
SMALL
GASTEIGER

@<TRIPOS>ATOM
      1 N           9.9957    9.7853   14.7261 N.pl3   1  UNL1       -0.2487
      2 C          10.9180    8.8995   15.0929 C.3     1  UNL1        0.0840
      3 C          10.7628    8.0571   16.1845 C.2     1  UNL1       -0.0600
      4 C           9.6031    8.1489   16.9353 C.2     1  UNL1       -0.0626
      5 C           8.6662    9.1097   16.5852 C.2     1  UNL1       -0.0466
      6 C           8.9013    9.9040   15.4738 C.2     1  UNL1        0.0121
      7 H          11.8402    8.8827   14.5210 H       1  UNL1        0.0584
      8 H          11.5345    7.3464   16.4349 H       1  UNL1        0.0592
      9 H           9.4434    7.5008   17.7841 H       1  UNL1        0.0615
     10 H           7.7675    9.2450   17.1657 H       1  UNL1        0.0630
     11 H           8.2191   10.6904   15.1735 H       1  UNL1        0.0797
@<TRIPOS>BOND
     1     7     2    1
     2     1     2    1
     3     1     6    1
     4     2     3    1
     5    11     6    1
     6     6     5    2
     7     3     8    1
     8     3     4    2
     9     5     4    1
    10     5    10    1
    11     4     9    1
