@<TRIPOS>MOLECULE
1
 11 11 0 0 0
SMALL
GASTEIGER

@<TRIPOS>ATOM
      1 N          12.0088    6.9948    6.5250 N.pl3   1  UNL1       -0.2487
      2 C          11.8069    8.2977    6.3363 C.3     1  UNL1        0.0840
      3 C          10.7888    9.0035    6.9602 C.2     1  UNL1       -0.0600
      4 C           9.9483    8.3328    7.8345 C.2     1  UNL1       -0.0626
      5 C          10.1776    6.9819    8.0552 C.2     1  UNL1       -0.0466
      6 C          11.2142    6.3530    7.3840 C.2     1  UNL1        0.0121
      7 H          12.4948    8.8085    5.6705 H       1  UNL1        0.0584
      8 H          10.6617   10.0583    6.7689 H       1  UNL1        0.0592
      9 H           9.1448    8.8516    8.3360 H       1  UNL1        0.0615
     10 H           9.5643    6.4210    8.7427 H       1  UNL1        0.0630
     11 H          11.4360    5.3020    7.5417 H       1  UNL1        0.0797
@<TRIPOS>BOND
     1     7     2    1
     2     2     1    1
     3     2     3    1
     4     1     6    1
     5     8     3    1
     6     3     4    2
     7     6    11    1
     8     6     5    2
     9     4     5    1
    10     4     9    1
    11     5    10    1
