@<TRIPOS>MOLECULE
1
 11 11 0 0 0
SMALL
GASTEIGER

@<TRIPOS>ATOM
      1 N          10.1284   10.9657   10.6195 N.pl3   1  UNL1       -0.2487
      2 C           9.5134   10.1903    9.7255 C.3     1  UNL1        0.0840
      3 C           9.7557   10.2769    8.3641 C.2     1  UNL1       -0.0600
      4 C          10.6824   11.2010    7.9053 C.2     1  UNL1       -0.0626
      5 C          11.3345   11.9939    8.8363 C.2     1  UNL1       -0.0466
      6 C          11.0320   11.8408   10.1806 C.2     1  UNL1        0.0121
      7 H           8.7971    9.4770   10.1226 H       1  UNL1        0.0584
      8 H           9.2292    9.6310    7.6789 H       1  UNL1        0.0592
      9 H          10.8930   11.2965    6.8508 H       1  UNL1        0.0615
     10 H          12.0675   12.7225    8.5292 H       1  UNL1        0.0630
     11 H          11.5224   12.4420   10.9369 H       1  UNL1        0.0797
@<TRIPOS>BOND
     1     9     4    1
     2     8     3    1
     3     4     3    2
     4     4     5    1
     5     3     2    1
     6    10     5    1
     7     5     6    2
     8     2     7    1
     9     2     1    1
    10     6     1    1
    11     6    11    1
