@<TRIPOS>MOLECULE
1
 11 11 0 0 0
SMALL
GASTEIGER

@<TRIPOS>ATOM
      1 N          14.4610    4.7234    3.9315 N.pl3   1  UNL1       -0.2487
      2 C          15.7954    4.6628    3.9663 C.3     1  UNL1        0.0840
      3 C          16.5279    3.7292    3.2488 C.2     1  UNL1       -0.0600
      4 C          15.8546    2.7933    2.4770 C.2     1  UNL1       -0.0626
      5 C          14.4667    2.8409    2.4567 C.2     1  UNL1       -0.0466
      6 C          13.8146    3.8230    3.1834 C.2     1  UNL1        0.0121
      7 H          16.2870    5.3736    4.6226 H       1  UNL1        0.0584
      8 H          17.6050    3.7273    3.3060 H       1  UNL1        0.0592
      9 H          16.3946    2.0477    1.9136 H       1  UNL1        0.0615
     10 H          13.8982    2.1316    1.8756 H       1  UNL1        0.0630
     11 H          12.7319    3.9116    3.1842 H       1  UNL1        0.0797
@<TRIPOS>BOND
     1    10     5    1
     2     9     4    1
     3     5     4    1
     4     5     6    2
     5     4     3    2
     6     6    11    1
     7     6     1    1
     8     3     8    1
     9     3     2    1
    10     1     2    1
    11     2     7    1
