@<TRIPOS>MOLECULE
1
 11 11 0 0 0
SMALL
GASTEIGER

@<TRIPOS>ATOM
      1 N          15.8134   17.0487   22.6846 N.pl3   1  UNL1       -0.2487
      2 C          16.0966   16.3413   23.7783 C.3     1  UNL1        0.0840
      3 C          16.2543   14.9643   23.7718 C.2     1  UNL1       -0.0600
      4 C          16.0753   14.2766   22.5821 C.2     1  UNL1       -0.0626
      5 C          15.7503   15.0056   21.4490 C.2     1  UNL1       -0.0466
      6 C          15.6433   16.3837   21.5441 C.2     1  UNL1        0.0121
      7 H          16.1593   16.8990   24.7074 H       1  UNL1        0.0584
      8 H          16.4945   14.4404   24.6843 H       1  UNL1        0.0592
      9 H          16.1750   13.2023   22.5428 H       1  UNL1        0.0615
     10 H          15.5810   14.5147   20.5037 H       1  UNL1        0.0630
     11 H          15.3983   16.9808   20.6723 H       1  UNL1        0.0797
@<TRIPOS>BOND
     1    10     5    1
     2    11     6    1
     3     5     6    2
     4     5     4    1
     5     6     1    1
     6     9     4    1
     7     4     3    2
     8     1     2    1
     9     3     2    1
    10     3     8    1
    11     2     7    1
