@<TRIPOS>MOLECULE
1
 11 11 0 0 0
SMALL
GASTEIGER

@<TRIPOS>ATOM
      1 N           2.3123   19.4274    3.4363 N.pl3   1  UNL1       -0.2487
      2 C           3.1811   20.4393    3.5094 C.3     1  UNL1        0.0840
      3 C           2.9183   21.6147    4.1913 C.2     1  UNL1       -0.0600
      4 C           1.6973   21.7630    4.8341 C.2     1  UNL1       -0.0626
      5 C           0.7849   20.7213    4.7458 C.2     1  UNL1       -0.0466
      6 C           1.1311   19.5787    4.0452 C.2     1  UNL1        0.0121
      7 H           4.1222   20.2952    2.9896 H       1  UNL1        0.0584
      8 H           3.6604   22.3974    4.2224 H       1  UNL1        0.0592
      9 H           1.4645   22.6617    5.3846 H       1  UNL1        0.0615
     10 H          -0.1809   20.7886    5.2212 H       1  UNL1        0.0630
     11 H           0.4419   18.7467    3.9642 H       1  UNL1        0.0797
@<TRIPOS>BOND
     1     7     2    1
     2     1     2    1
     3     1     6    1
     4     2     3    1
     5    11     6    1
     6     6     5    2
     7     3     8    1
     8     3     4    2
     9     5     4    1
    10     5    10    1
    11     4     9    1
