@<TRIPOS>MOLECULE
1
 11 11 0 0 0
SMALL
GASTEIGER

@<TRIPOS>ATOM
      1 N           4.0773   15.5527    2.9934 N.pl3   1  UNL1       -0.2487
      2 C           4.9678   15.3100    2.0255 C.3     1  UNL1        0.0840
      3 C           5.9781   14.3719    2.1495 C.2     1  UNL1       -0.0600
      4 C           6.0916   13.6511    3.3296 C.2     1  UNL1       -0.0626
      5 C           5.1597   13.8899    4.3302 C.2     1  UNL1       -0.0466
      6 C           4.1768   14.8409    4.1192 C.2     1  UNL1        0.0121
      7 H           4.8586   15.8968    1.1219 H       1  UNL1        0.0584
      8 H           6.6706   14.2175    1.3371 H       1  UNL1        0.0592
      9 H           6.8788   12.9255    3.4659 H       1  UNL1        0.0615
     10 H           5.1975   13.3509    5.2640 H       1  UNL1        0.0630
     11 H           3.4256   15.0367    4.8771 H       1  UNL1        0.0797
@<TRIPOS>BOND
     1     7     2    1
     2     8     3    1
     3     2     3    1
     4     2     1    1
     5     3     4    2
     6     1     6    1
     7     4     9    1
     8     4     5    1
     9     6     5    2
    10     6    11    1
    11     5    10    1
