@<TRIPOS>MOLECULE
1
 23 24 0 0 0
SMALL
GASTEIGER

@<TRIPOS>ATOM
      1 N          11.6677    4.3459    5.7650 N.pl3   1  UNL1       -0.2150
      2 C          10.7594    4.1361    4.7198 C.ar    1  UNL1        0.0537
      3 C           9.3814    4.2859    4.9163 C.ar    1  UNL1       -0.0387
      4 H           9.0130    4.6217    5.8751 H       1  UNL1        0.0637
      5 C           8.4897    4.0325    3.8901 C.ar    1  UNL1       -0.0599
      6 H           7.4303    4.1502    4.0696 H       1  UNL1        0.0618
      7 C           8.9426    3.6406    2.6408 C.ar    1  UNL1       -0.0616
      8 H           8.2424    3.4427    1.8431 H       1  UNL1        0.0618
      9 C          10.3061    3.5171    2.4230 C.ar    1  UNL1       -0.0599
     10 H          10.6724    3.2234    1.4496 H       1  UNL1        0.0618
     11 C          11.2034    3.7655    3.4415 C.ar    1  UNL1       -0.0387
     12 H          12.2659    3.6766    3.2616 H       1  UNL1        0.0637
     13 C          12.6952    5.2317    5.5463 C.ar    1  UNL1        0.0537
     14 C          12.6356    6.2657    4.5922 C.ar    1  UNL1       -0.0387
     15 H          11.7690    6.3440    3.9506 H       1  UNL1        0.0637
     16 C          13.6539    7.1891    4.4856 C.ar    1  UNL1       -0.0599
     17 H          13.5787    7.9767    3.7492 H       1  UNL1        0.0618
     18 C          14.7618    7.1264    5.3166 C.ar    1  UNL1       -0.0616
     19 H          15.5505    7.8582    5.2336 H       1  UNL1        0.0618
     20 C          14.8434    6.1069    6.2535 C.ar    1  UNL1       -0.0599
     21 H          15.7112    6.0462    6.8960 H       1  UNL1        0.0618
     22 C          13.8381    5.1660    6.3662 C.ar    1  UNL1       -0.0387
     23 H          13.9083    4.3327    7.0670 H       1  UNL1        0.0637
@<TRIPOS>BOND
     1    10     9    1
     2     8     7    1
     3     9     7   ar
     4     9    11   ar
     5     7     5   ar
     6    12    11    1
     7    11     2   ar
     8    17    16    1
     9     5     6    1
    10     5     3   ar
    11    15    14    1
    12    16    14   ar
    13    16    18   ar
    14    14    13   ar
    15     2     3   ar
    16     2     1    1
    17     3     4    1
    18    19    18    1
    19    18    20   ar
    20    13     1    1
    21    13    22   ar
    22    20    22   ar
    23    20    21    1
    24    22    23    1
