@<TRIPOS>MOLECULE
1
 23 24 0 0 0
SMALL
GASTEIGER

@<TRIPOS>ATOM
      1 N          10.1169    2.0606    7.0298 N.pl3   1  UNL1       -0.2150
      2 C           8.8623    2.5060    7.3304 C.ar    1  UNL1        0.0537
      3 C           8.7645    3.6509    8.1549 C.ar    1  UNL1       -0.0387
      4 H           9.7014    4.1250    8.4690 H       1  UNL1        0.0637
      5 C           7.5339    4.1405    8.5425 C.ar    1  UNL1       -0.0599
      6 H           7.4772    5.0228    9.1661 H       1  UNL1        0.0618
      7 C           6.3613    3.5126    8.1463 C.ar    1  UNL1       -0.0616
      8 H           5.4025    3.9038    8.4488 H       1  UNL1        0.0618
      9 C           6.4427    2.3683    7.3686 C.ar    1  UNL1       -0.0599
     10 H           5.5378    1.8578    7.0703 H       1  UNL1        0.0618
     11 C           7.6620    1.8622    6.9703 C.ar    1  UNL1       -0.0387
     12 H           7.6987    0.9563    6.3834 H       1  UNL1        0.0637
     13 C          10.2834    0.9091    6.2585 C.ar    1  UNL1        0.0537
     14 C          11.0181   -0.1516    6.8040 C.ar    1  UNL1       -0.0387
     15 H          11.4288   -0.0317    7.8018 H       1  UNL1        0.0637
     16 C          11.1938   -1.3235    6.0941 C.ar    1  UNL1       -0.0599
     17 H          11.7343   -2.1461    6.5392 H       1  UNL1        0.0618
     18 C          10.6651   -1.4583    4.8204 C.ar    1  UNL1       -0.0616
     19 H          10.8043   -2.3754    4.2677 H       1  UNL1        0.0618
     20 C           9.9538   -0.4082    4.2623 C.ar    1  UNL1       -0.0599
     21 H           9.5453   -0.5018    3.2664 H       1  UNL1        0.0618
     22 C           9.7506    0.7593    4.9715 C.ar    1  UNL1       -0.0387
     23 H           9.1912    1.5714    4.5316 H       1  UNL1        0.0637
@<TRIPOS>BOND
     1    21    20    1
     2    20    18   ar
     3    20    22   ar
     4    19    18    1
     5    23    22    1
     6    18    16   ar
     7    22    13   ar
     8    16    17    1
     9    16    14   ar
    10    13    14   ar
    11    13     1    1
    12    12    11    1
    13    14    15    1
    14    11     2   ar
    15    11     9   ar
    16     1     2    1
    17    10     9    1
    18     2     3   ar
    19     9     7   ar
    20     7     8    1
    21     7     5   ar
    22     3     4    1
    23     3     5   ar
    24     5     6    1
