@<TRIPOS>MOLECULE
1
 23 24 0 0 0
SMALL
GASTEIGER

@<TRIPOS>ATOM
      1 N          11.3588    5.6424   43.6011 N.pl3   1  UNL1       -0.2150
      2 C          10.1869    5.9184   42.9478 C.ar    1  UNL1        0.0537
      3 C           9.1542    6.5932   43.6354 C.ar    1  UNL1       -0.0387
      4 H           9.3031    6.8515   44.6824 H       1  UNL1        0.0637
      5 C           7.9682    6.9040   43.0031 C.ar    1  UNL1       -0.0599
      6 H           7.1979    7.4301   43.5509 H       1  UNL1        0.0618
      7 C           7.7515    6.5539   41.6791 C.ar    1  UNL1       -0.0616
      8 H           6.8234    6.8054   41.1894 H       1  UNL1        0.0618
      9 C           8.7391    5.8558   41.0022 C.ar    1  UNL1       -0.0599
     10 H           8.5763    5.5510   39.9779 H       1  UNL1        0.0618
     11 C           9.9319    5.5382   41.6156 C.ar    1  UNL1       -0.0387
     12 H          10.6807    4.9775   41.0739 H       1  UNL1        0.0637
     13 C          12.4119    5.0614   42.8718 C.ar    1  UNL1        0.0537
     14 C          13.0699    5.7465   41.8408 C.ar    1  UNL1       -0.0387
     15 H          12.7316    6.7329   41.5487 H       1  UNL1        0.0637
     16 C          14.1443    5.1735   41.1877 C.ar    1  UNL1       -0.0599
     17 H          14.6424    5.7220   40.4008 H       1  UNL1        0.0618
     18 C          14.5809    3.9053   41.5341 C.ar    1  UNL1       -0.0616
     19 H          15.4244    3.4647   41.0247 H       1  UNL1        0.0618
     20 C          13.9167    3.2013   42.5250 C.ar    1  UNL1       -0.0599
     21 H          14.2340    2.2033   42.7866 H       1  UNL1        0.0618
     22 C          12.8368    3.7628   43.1800 C.ar    1  UNL1       -0.0387
     23 H          12.2972    3.1934   43.9298 H       1  UNL1        0.0637
@<TRIPOS>BOND
     1    10     9    1
     2    17    16    1
     3     9    11   ar
     4     9     7   ar
     5    19    18    1
     6    12    11    1
     7    16    18   ar
     8    16    14   ar
     9     8     7    1
    10    18    20   ar
    11    15    14    1
    12    11     2   ar
    13     7     5   ar
    14    14    13   ar
    15    20    21    1
    16    20    22   ar
    17    13    22   ar
    18    13     1    1
    19     2     1    1
    20     2     3   ar
    21     5     6    1
    22     5     3   ar
    23    22    23    1
    24     3     4    1
