@<TRIPOS>MOLECULE
1
 31 31 0 0 0
SMALL
GASTEIGER

@<TRIPOS>ATOM
      1 N           0.9177    3.0012   11.3600 N.pl3   1  UNL1       -0.2660
      2 H           0.2058    2.6647   10.7056 H       1  UNL1        0.1699
      3 C           0.2943    3.3213   12.5485 C.ar    1  UNL1        0.0512
      4 C           1.0586    3.4305   13.7420 C.ar    1  UNL1       -0.0222
      5 C           0.4322    3.7606   14.9303 C.ar    1  UNL1       -0.0565
      6 H           1.0164    3.8386   15.8349 H       1  UNL1        0.0621
      7 C          -0.9330    3.9659   14.9984 C.ar    1  UNL1       -0.0611
      8 H          -1.4028    4.2215   15.9366 H       1  UNL1        0.0618
      9 C          -1.6943    3.8045   13.8560 C.ar    1  UNL1       -0.0565
     10 H          -2.7644    3.9243   13.9246 H       1  UNL1        0.0621
     11 C          -1.1153    3.4947   12.6387 C.ar    1  UNL1       -0.0222
     12 C          -1.9985    3.2822   11.4233 C.3     1  UNL1       -0.0197
     13 H          -1.4452    3.5671   10.5195 H       1  UNL1        0.0344
     14 C          -2.3690    1.7982   11.3140 C.3     1  UNL1       -0.0586
     15 H          -1.4783    1.1740   11.3384 H       1  UNL1        0.0235
     16 H          -2.9058    1.6075   10.3864 H       1  UNL1        0.0235
     17 H          -3.0006    1.5101   12.1520 H       1  UNL1        0.0235
     18 C          -3.2724    4.1287   11.4321 C.3     1  UNL1       -0.0586
     19 H          -4.0024    3.7398   12.1378 H       1  UNL1        0.0235
     20 H          -3.7230    4.1113   10.4413 H       1  UNL1        0.0235
     21 H          -3.0485    5.1595   11.6968 H       1  UNL1        0.0235
     22 C           2.5262    3.0499   13.7771 C.3     1  UNL1       -0.0197
     23 H           2.9113    3.0084   12.7447 H       1  UNL1        0.0344
     24 C           2.6572    1.6548   14.4016 C.3     1  UNL1       -0.0586
     25 H           2.3868    1.6913   15.4551 H       1  UNL1        0.0235
     26 H           3.6808    1.2965   14.3143 H       1  UNL1        0.0235
     27 H           1.9944    0.9490   13.9100 H       1  UNL1        0.0235
     28 C           3.3998    4.0263   14.5675 C.3     1  UNL1       -0.0586
     29 H           3.2552    5.0476   14.2263 H       1  UNL1        0.0235
     30 H           4.4461    3.7535   14.4424 H       1  UNL1        0.0235
     31 H           3.1706    3.9862   15.6297 H       1  UNL1        0.0235
@<TRIPOS>BOND
     1    16    14    1
     2    20    18    1
     3    13    12    1
     4     2     1    1
     5    14    15    1
     6    14    12    1
     7    14    17    1
     8     1     3    1
     9    12    18    1
    10    12    11    1
    11    18    21    1
    12    18    19    1
    13     3    11   ar
    14     3     4   ar
    15    11     9   ar
    16    23    22    1
    17     4    22    1
    18     4     5   ar
    19    22    24    1
    20    22    28    1
    21     9    10    1
    22     9     7   ar
    23    27    24    1
    24    29    28    1
    25    26    24    1
    26    24    25    1
    27    30    28    1
    28    28    31    1
    29     5     7   ar
    30     5     6    1
    31     7     8    1
