@<TRIPOS>MOLECULE
1
 11 11 0 0 0
SMALL
GASTEIGER

@<TRIPOS>ATOM
      1 N           9.0602    2.7901    5.7383 N.pl3   1  UNL1       -0.2487
      2 C          10.3720    2.5584    5.7468 C.3     1  UNL1        0.0840
      3 C          11.2275    3.1283    6.6747 C.2     1  UNL1       -0.0600
      4 C          10.7017    3.9736    7.6434 C.2     1  UNL1       -0.0626
      5 C           9.3325    4.2036    7.6419 C.2     1  UNL1       -0.0466
      6 C           8.5558    3.5918    6.6734 C.2     1  UNL1        0.0121
      7 H          10.7242    1.8838    4.9743 H       1  UNL1        0.0584
      8 H          12.2849    2.9165    6.6437 H       1  UNL1        0.0592
      9 H          11.3390    4.4363    8.3818 H       1  UNL1        0.0615
     10 H           8.8804    4.8470    8.3811 H       1  UNL1        0.0630
     11 H           7.4826    3.7570    6.6418 H       1  UNL1        0.0797
@<TRIPOS>BOND
     1     7     2    1
     2     1     2    1
     3     1     6    1
     4     2     3    1
     5    11     6    1
     6     8     3    1
     7     6     5    2
     8     3     4    2
     9     5     4    1
    10     5    10    1
    11     4     9    1
