@<TRIPOS>MOLECULE
1
 11 11 0 0 0
SMALL
GASTEIGER

@<TRIPOS>ATOM
      1 N           8.6417   25.1189    0.1512 N.pl3   1  UNL1       -0.2487
      2 C           8.4994   26.2341   -0.5728 C.3     1  UNL1        0.0840
      3 C           9.5492   26.8377   -1.2457 C.2     1  UNL1       -0.0600
      4 C          10.8103   26.2657   -1.1840 C.2     1  UNL1       -0.0626
      5 C          10.9567   25.0927   -0.4501 C.2     1  UNL1       -0.0466
      6 C           9.8564   24.5611    0.1938 C.2     1  UNL1        0.0121
      7 H           7.5051   26.6666   -0.6144 H       1  UNL1        0.0584
      8 H           9.3786   27.7412   -1.8110 H       1  UNL1        0.0592
      9 H          11.6506   26.7125   -1.6923 H       1  UNL1        0.0615
     10 H          11.9161   24.6036   -0.3788 H       1  UNL1        0.0630
     11 H           9.9280   23.6548    0.7859 H       1  UNL1        0.0797
@<TRIPOS>BOND
     1     8     3    1
     2     9     4    1
     3     3     4    2
     4     3     2    1
     5     4     5    1
     6     7     2    1
     7     2     1    1
     8     5    10    1
     9     5     6    2
    10     1     6    1
    11     6    11    1
