@<TRIPOS>MOLECULE
5
 21 20 0 0 0
SMALL
GASTEIGER

@<TRIPOS>ATOM
      1 SI          8.6322    3.0098    6.1205 Si      1  UNL1        0.0000
      2 H           8.0480    3.7061    7.3101 H       1  UNL1        0.0000
      3 SI          6.6593    0.9424    5.1525 Si      1  UNL1        0.0000
      4 H           5.2719    1.0492    4.5763 H       1  UNL1        0.0000
      5 N           7.3843    2.4930    5.0761 N.3     1  UNL1        0.0000
      6 C           9.8745    1.7254    6.7782 C.3     1  UNL1        0.0000
      7 H           9.3905    1.0476    7.4719 H       1  UNL1        0.0000
      8 H          10.6982    2.1983    7.3040 H       1  UNL1        0.0000
      9 H          10.2924    1.1293    5.9720 H       1  UNL1        0.0000
     10 C           9.6367    4.3117    5.1303 C.3     1  UNL1        0.0000
     11 H          10.5720    3.9000    4.7624 H       1  UNL1        0.0000
     12 H           9.8860    5.1712    5.7437 H       1  UNL1        0.0000
     13 H           9.0546    4.6674    4.2610 H       1  UNL1        0.0000
     14 C           6.4125    0.2836    6.9178 C.3     1  UNL1        0.0000
     15 H           7.3420   -0.0856    7.3349 H       1  UNL1        0.0000
     16 H           5.6988   -0.5330    6.9360 H       1  UNL1        0.0000
     17 H           6.0462    1.0638    7.5757 H       1  UNL1        0.0000
     18 C           7.5870   -0.3729    4.1291 C.3     1  UNL1        0.0000
     19 H           7.9360    0.0582    3.1944 H       1  UNL1        0.0000
     20 H           6.9616   -1.2294    3.8954 H       1  UNL1        0.0000
     21 H           8.4574   -0.7403    4.6635 H       1  UNL1        0.0000
@<TRIPOS>BOND
     1    19    18    1
     2    20    18    1
     3    18    21    1
     4    18     3    1
     5    13    10    1
     6     4     3    1
     7    11    10    1
     8     5     3    1
     9     5     1    1
    10    10    12    1
    11    10     1    1
    12     3    14    1
    13     9     6    1
    14     1     6    1
    15     1     2    1
    16     6     8    1
    17     6     7    1
    18    14    16    1
    19    14    15    1
    20    14    17    1
