@<TRIPOS>MOLECULE
5
 21 20 0 0 0
SMALL
GASTEIGER

@<TRIPOS>ATOM
      1 SI          2.2499    4.4517   11.1986 Si      1  UNL1        0.0000
      2 H           0.8664    3.9985   10.8554 H       1  UNL1        0.0000
      3 SI          4.2105    2.4964    9.9800 Si      1  UNL1        0.0000
      4 H           4.4363    1.0250   10.2140 H       1  UNL1        0.0000
      5 N           3.3047    3.1117   11.2980 N.3     1  UNL1        0.0000
      6 C           2.1940    5.1969   12.9682 C.3     1  UNL1        0.0000
      7 H           2.7675    4.5477   13.6532 H       1  UNL1        0.0000
      8 H           1.1800    5.2789   13.3463 H       1  UNL1        0.0000
      9 H           2.6330    6.1896   13.0018 H       1  UNL1        0.0000
     10 C           2.6912    5.8669   10.0031 C.3     1  UNL1        0.0000
     11 H           3.7151    6.2009   10.1447 H       1  UNL1        0.0000
     12 H           2.0387    6.7238   10.1387 H       1  UNL1        0.0000
     13 H           2.5911    5.5400    8.9745 H       1  UNL1        0.0000
     14 C           5.9336    3.3011    9.8278 C.3     1  UNL1        0.0000
     15 H           5.8740    4.2612    9.3250 H       1  UNL1        0.0000
     16 H           6.6295    2.6822    9.2692 H       1  UNL1        0.0000
     17 H           6.3514    3.4761   10.8161 H       1  UNL1        0.0000
     18 C           3.3311    2.6014    8.2993 C.3     1  UNL1        0.0000
     19 H           2.2874    2.3222    8.3899 H       1  UNL1        0.0000
     20 H           3.7933    1.9409    7.5735 H       1  UNL1        0.0000
     21 H           3.3672    3.6065    7.8957 H       1  UNL1        0.0000
@<TRIPOS>BOND
     1    20    18    1
     2    21    18    1
     3    18    19    1
     4    18     3    1
     5    13    10    1
     6    16    14    1
     7    15    14    1
     8    14     3    1
     9    14    17    1
    10     3     4    1
    11     3     5    1
    12    10    12    1
    13    10    11    1
    14    10     1    1
    15     2     1    1
    16     1     5    1
    17     1     6    1
    18     6     9    1
    19     6     8    1
    20     6     7    1
