@<TRIPOS>MOLECULE
5
 21 20 0 0 0
SMALL
GASTEIGER

@<TRIPOS>ATOM
      1 SI          6.3257    7.2060    5.0050 Si      1  UNL1        0.0000
      2 H           6.1046    5.8086    4.4925 H       1  UNL1        0.0000
      3 SI          4.4055    9.6054    5.3190 Si      1  UNL1        0.0000
      4 H           2.9081    9.6813    5.3867 H       1  UNL1        0.0000
      5 N           4.8004    7.9879    4.8953 N.3     1  UNL1        0.0000
      6 C           7.6912    8.0511    3.9641 C.3     1  UNL1        0.0000
      7 H           7.3632    8.2441    2.9487 H       1  UNL1        0.0000
      8 H           8.5782    7.4284    3.9106 H       1  UNL1        0.0000
      9 H           7.9863    8.9996    4.4019 H       1  UNL1        0.0000
     10 C           7.0816    7.0425    6.7541 C.3     1  UNL1        0.0000
     11 H           6.4406    6.4670    7.4121 H       1  UNL1        0.0000
     12 H           7.2443    8.0109    7.2156 H       1  UNL1        0.0000
     13 H           8.0430    6.5400    6.7082 H       1  UNL1        0.0000
     14 C           5.0520   10.8959    4.0614 C.3     1  UNL1        0.0000
     15 H           4.7794   10.6364    3.0440 H       1  UNL1        0.0000
     16 H           6.1339   10.9772    4.1016 H       1  UNL1        0.0000
     17 H           4.6439   11.8797    4.2698 H       1  UNL1        0.0000
     18 C           5.0621   10.1873    7.0175 C.3     1  UNL1        0.0000
     19 H           4.7270    9.5414    7.8214 H       1  UNL1        0.0000
     20 H           4.7158   11.1918    7.2383 H       1  UNL1        0.0000
     21 H           6.1469   10.2078    7.0372 H       1  UNL1        0.0000
@<TRIPOS>BOND
     1     7     6    1
     2    15    14    1
     3     8     6    1
     4     6     9    1
     5     6     1    1
     6    14    16    1
     7    14    17    1
     8    14     3    1
     9     2     1    1
    10     5     1    1
    11     5     3    1
    12     1    10    1
    13     3     4    1
    14     3    18    1
    15    13    10    1
    16    10    12    1
    17    10    11    1
    18    18    21    1
    19    18    20    1
    20    18    19    1
