@<TRIPOS>MOLECULE
5
 21 20 0 0 0
SMALL
GASTEIGER

@<TRIPOS>ATOM
      1 SI          0.0546    7.1979    4.5320 Si      1  UNL1        0.0000
      2 H           0.3692    5.9139    5.2440 H       1  UNL1        0.0000
      3 SI          1.7175    8.8872    2.5483 Si      1  UNL1        0.0000
      4 H           3.2026    9.0101    2.3396 H       1  UNL1        0.0000
      5 N           1.5128    7.7148    3.7870 N.3     1  UNL1        0.0000
      6 C          -0.6507    8.4664    5.7811 C.3     1  UNL1        0.0000
      7 H           0.1135    8.8275    6.4611 H       1  UNL1        0.0000
      8 H          -1.4403    8.0244    6.3800 H       1  UNL1        0.0000
      9 H          -1.0716    9.3282    5.2723 H       1  UNL1        0.0000
     10 C          -1.3856    6.8259    3.3310 C.3     1  UNL1        0.0000
     11 H          -1.1234    6.0557    2.6140 H       1  UNL1        0.0000
     12 H          -1.6768    7.7116    2.7759 H       1  UNL1        0.0000
     13 H          -2.2596    6.4825    3.8749 H       1  UNL1        0.0000
     14 C           1.0030   10.6025    3.0043 C.3     1  UNL1        0.0000
     15 H           1.3568   10.9420    3.9715 H       1  UNL1        0.0000
     16 H          -0.0816   10.5768    3.0397 H       1  UNL1        0.0000
     17 H           1.2864   11.3489    2.2695 H       1  UNL1        0.0000
     18 C           0.9473    8.4736    0.8476 C.3     1  UNL1        0.0000
     19 H           1.3800    7.5742    0.4253 H       1  UNL1        0.0000
     20 H           1.1174    9.2837    0.1449 H       1  UNL1        0.0000
     21 H          -0.1253    8.3243    0.9157 H       1  UNL1        0.0000
@<TRIPOS>BOND
     1    20    18    1
     2    19    18    1
     3    18    21    1
     4    18     3    1
     5    17    14    1
     6     4     3    1
     7     3    14    1
     8     3     5    1
     9    11    10    1
    10    12    10    1
    11    14    16    1
    12    14    15    1
    13    10    13    1
    14    10     1    1
    15     5     1    1
    16     1     2    1
    17     1     6    1
    18     9     6    1
    19     6     8    1
    20     6     7    1
