@<TRIPOS>MOLECULE
5
 21 20 0 0 0
SMALL
GASTEIGER

@<TRIPOS>ATOM
      1 SI          4.7716    6.1877    1.5314 Si      1  UNL1        0.0000
      2 H           5.2345    7.5272    2.0266 H       1  UNL1        0.0000
      3 SI          2.3477    4.4462    2.3339 Si      1  UNL1        0.0000
      4 H           1.5465    4.3734    3.6057 H       1  UNL1        0.0000
      5 N           3.5113    5.6848    2.5839 N.3     1  UNL1        0.0000
      6 C           6.2532    4.9756    1.4845 C.3     1  UNL1        0.0000
      7 H           6.5815    4.7032    2.4820 H       1  UNL1        0.0000
      8 H           7.1004    5.4176    0.9697 H       1  UNL1        0.0000
      9 H           5.9961    4.0596    0.9613 H       1  UNL1        0.0000
     10 C           4.2608    6.4184   -0.2964 C.3     1  UNL1        0.0000
     11 H           3.4667    7.1489   -0.4043 H       1  UNL1        0.0000
     12 H           3.9160    5.4859   -0.7312 H       1  UNL1        0.0000
     13 H           5.1027    6.7606   -0.8896 H       1  UNL1        0.0000
     14 C           3.1277    2.7350    1.9815 C.3     1  UNL1        0.0000
     15 H           3.8778    2.4741    2.7198 H       1  UNL1        0.0000
     16 H           3.6038    2.7164    1.0061 H       1  UNL1        0.0000
     17 H           2.3729    1.9554    1.9893 H       1  UNL1        0.0000
     18 C           1.1043    4.7172    0.9066 C.3     1  UNL1        0.0000
     19 H           0.5056    5.6065    1.0655 H       1  UNL1        0.0000
     20 H           0.4266    3.8726    0.8266 H       1  UNL1        0.0000
     21 H           1.6048    4.8220   -0.0505 H       1  UNL1        0.0000
@<TRIPOS>BOND
     1    13    10    1
     2    12    10    1
     3    11    10    1
     4    10     1    1
     5    21    18    1
     6    20    18    1
     7    18    19    1
     8    18     3    1
     9     9     6    1
    10     8     6    1
    11    16    14    1
    12     6     1    1
    13     6     7    1
    14     1     2    1
    15     1     5    1
    16    14    17    1
    17    14     3    1
    18    14    15    1
    19     3     5    1
    20     3     4    1
