@<TRIPOS>MOLECULE
5
 21 20 0 0 0
SMALL
GASTEIGER

@<TRIPOS>ATOM
      1 SI          2.6103    6.4521    7.4364 Si      1  UNL1        0.0000
      2 H           2.1770    7.8055    6.9424 H       1  UNL1        0.0000
      3 SI          3.7799    4.0039    5.9614 Si      1  UNL1        0.0000
      4 H           4.4640    3.8734    4.6320 H       1  UNL1        0.0000
      5 N           3.1731    5.6088    6.0500 N.3     1  UNL1        0.0000
      6 C           1.1354    5.5939    8.3025 C.3     1  UNL1        0.0000
      7 H           0.3525    5.3303    7.5999 H       1  UNL1        0.0000
      8 H           0.6977    6.2419    9.0548 H       1  UNL1        0.0000
      9 H           1.4510    4.6834    8.8022 H       1  UNL1        0.0000
     10 C           3.8828    6.7504    8.8326 C.3     1  UNL1        0.0000
     11 H           4.7223    7.3422    8.4863 H       1  UNL1        0.0000
     12 H           4.2758    5.8189    9.2264 H       1  UNL1        0.0000
     13 H           3.4231    7.2830    9.6596 H       1  UNL1        0.0000
     14 C           2.4147    2.6698    6.1086 C.3     1  UNL1        0.0000
     15 H           1.5891    2.8646    5.4324 H       1  UNL1        0.0000
     16 H           2.0121    2.6279    7.1160 H       1  UNL1        0.0000
     17 H           2.8063    1.6854    5.8734 H       1  UNL1        0.0000
     18 C           5.0749    3.5472    7.2914 C.3     1  UNL1        0.0000
     19 H           5.9248    4.2205    7.2734 H       1  UNL1        0.0000
     20 H           5.4500    2.5415    7.1314 H       1  UNL1        0.0000
     21 H           4.6472    3.5778    8.2882 H       1  UNL1        0.0000
@<TRIPOS>BOND
     1     4     3    1
     2    15    14    1
     3    17    14    1
     4     3     5    1
     5     3    14    1
     6     3    18    1
     7     5     1    1
     8    14    16    1
     9     2     1    1
    10    20    18    1
    11    19    18    1
    12    18    21    1
    13     1     6    1
    14     1    10    1
    15     7     6    1
    16     6     9    1
    17     6     8    1
    18    11    10    1
    19    10    12    1
    20    10    13    1
