@<TRIPOS>MOLECULE
3
 27 26 0 0 0
SMALL
GASTEIGER

@<TRIPOS>ATOM
      1 SI          5.9321    8.1850    4.5970 Si      1  UNL1        0.0000
      2 SI          5.0150   10.4138    6.3704 Si      1  UNL1        0.0000
      3 N           5.9583    9.8430    5.0482 N.3     1  UNL1        0.0000
      4 C           4.6686   12.2868    6.1146 C.3     1  UNL1        0.0000
      5 H           5.3127   12.7200    5.3457 H       1  UNL1        0.0000
      6 H           4.8378   12.8394    7.0324 H       1  UNL1        0.0000
      7 H           3.6363   12.4643    5.8296 H       1  UNL1        0.0000
      8 C           7.3734    7.8302    3.3832 C.3     1  UNL1        0.0000
      9 H           7.1059    8.1064    2.3672 H       1  UNL1        0.0000
     10 H           7.6223    6.7736    3.3752 H       1  UNL1        0.0000
     11 H           8.2717    8.3794    3.6540 H       1  UNL1        0.0000
     12 C           5.8576   10.1391    8.0755 C.3     1  UNL1        0.0000
     13 H           5.8521    9.0849    8.3320 H       1  UNL1        0.0000
     14 H           5.3332   10.6700    8.8643 H       1  UNL1        0.0000
     15 H           6.8900   10.4714    8.0873 H       1  UNL1        0.0000
     16 C           6.1060    6.9614    6.0598 C.3     1  UNL1        0.0000
     17 H           6.9334    7.2329    6.7055 H       1  UNL1        0.0000
     18 H           6.2671    5.9430    5.7206 H       1  UNL1        0.0000
     19 H           5.2071    6.9664    6.6656 H       1  UNL1        0.0000
     20 C           4.3464    7.6436    3.6519 C.3     1  UNL1        0.0000
     21 H           3.4573    7.8103    4.2489 H       1  UNL1        0.0000
     22 H           4.3798    6.5878    3.4014 H       1  UNL1        0.0000
     23 H           4.2299    8.1946    2.7236 H       1  UNL1        0.0000
     24 C           3.2893    9.6034    6.5927 C.3     1  UNL1        0.0000
     25 H           2.6607    9.7048    5.7138 H       1  UNL1        0.0000
     26 H           2.7550   10.0445    7.4285 H       1  UNL1        0.0000
     27 H           3.3939    8.5437    6.7951 H       1  UNL1        0.0000
@<TRIPOS>BOND
     1     9     8    1
     2    23    20    1
     3    10     8    1
     4     8    11    1
     5     8     1    1
     6    22    20    1
     7    20    21    1
     8    20     1    1
     9     1     3    1
    10     1    16    1
    11     3     2    1
    12     5     4    1
    13    25    24    1
    14    18    16    1
    15     7     4    1
    16    16    19    1
    17    16    17    1
    18     4     2    1
    19     4     6    1
    20     2    24    1
    21     2    12    1
    22    24    27    1
    23    24    26    1
    24    12    15    1
    25    12    13    1
    26    12    14    1
