@<TRIPOS>MOLECULE
3
 27 26 0 0 0
SMALL
GASTEIGER

@<TRIPOS>ATOM
      1 SI          6.9843   14.7770    2.7834 Si      1  UNL1        0.0000
      2 SI          8.2299   14.1699    5.3962 Si      1  UNL1        0.0000
      3 N           7.4014   13.6255    3.9918 N.3     1  UNL1        0.0000
      4 C           6.5407   13.8992    1.1403 C.3     1  UNL1        0.0000
      5 H           7.3228   13.2068    0.8392 H       1  UNL1        0.0000
      6 H           6.4258   14.6288    0.3447 H       1  UNL1        0.0000
      7 H           5.6074   13.3502    1.2136 H       1  UNL1        0.0000
      8 C          10.1207   14.3766    5.0973 C.3     1  UNL1        0.0000
      9 H          10.4953   13.6188    4.4162 H       1  UNL1        0.0000
     10 H          10.6943   14.3179    6.0174 H       1  UNL1        0.0000
     11 H          10.3267   15.3410    4.6470 H       1  UNL1        0.0000
     12 C           7.9957   12.8696    6.7882 C.3     1  UNL1        0.0000
     13 H           7.1354   13.1179    7.3983 H       1  UNL1        0.0000
     14 H           8.8527   12.8354    7.4548 H       1  UNL1        0.0000
     15 H           7.8244   11.8716    6.3776 H       1  UNL1        0.0000
     16 C           8.3772   16.0089    2.3235 C.3     1  UNL1        0.0000
     17 H           8.6387   16.6302    3.1727 H       1  UNL1        0.0000
     18 H           8.0792   16.6675    1.5137 H       1  UNL1        0.0000
     19 H           9.2759   15.4867    2.0116 H       1  UNL1        0.0000
     20 C           5.4632   15.8486    3.2719 C.3     1  UNL1        0.0000
     21 H           4.8043   15.3174    3.9511 H       1  UNL1        0.0000
     22 H           4.8800   16.1436    2.4049 H       1  UNL1        0.0000
     23 H           5.7800   16.7549    3.7759 H       1  UNL1        0.0000
     24 C           7.6315   15.8254    6.1422 C.3     1  UNL1        0.0000
     25 H           7.8282   16.6484    5.4649 H       1  UNL1        0.0000
     26 H           8.1300   16.0446    7.0814 H       1  UNL1        0.0000
     27 H           6.5636   15.8064    6.3300 H       1  UNL1        0.0000
@<TRIPOS>BOND
     1     6     4    1
     2     5     4    1
     3     4     7    1
     4     4     1    1
     5    18    16    1
     6    19    16    1
     7    16     1    1
     8    16    17    1
     9    22    20    1
    10     1    20    1
    11     1     3    1
    12    20    23    1
    13    20    21    1
    14     3     2    1
    15     9     8    1
    16    11     8    1
    17     8     2    1
    18     8    10    1
    19     2    24    1
    20     2    12    1
    21    25    24    1
    22    24    27    1
    23    24    26    1
    24    15    12    1
    25    12    13    1
    26    12    14    1
