@<TRIPOS>MOLECULE
1
 11 11 0 0 0
SMALL
GASTEIGER

@<TRIPOS>ATOM
      1 N           5.5523    2.5441    2.6457 N.pl3   1  UNL1       -0.2487
      2 C           5.5035    3.6286    3.4269 C.3     1  UNL1        0.0840
      3 C           5.5174    4.9190    2.9303 C.2     1  UNL1       -0.0600
      4 C           5.5847    5.1135    1.5597 C.2     1  UNL1       -0.0626
      5 C           5.6354    3.9894    0.7461 C.2     1  UNL1       -0.0466
      6 C           5.6173    2.7341    1.3221 C.2     1  UNL1        0.0121
      7 H           5.4506    3.4586    4.4977 H       1  UNL1        0.0584
      8 H           5.4759    5.7547    3.6113 H       1  UNL1        0.0592
      9 H           5.5971    6.1070    1.1396 H       1  UNL1        0.0615
     10 H           5.6886    4.0829   -0.3268 H       1  UNL1        0.0630
     11 H           5.6554    1.8390    0.7143 H       1  UNL1        0.0797
@<TRIPOS>BOND
     1    10     5    1
     2    11     6    1
     3     5     6    2
     4     5     4    1
     5     9     4    1
     6     6     1    1
     7     4     3    2
     8     1     2    1
     9     3     2    1
    10     3     8    1
    11     2     7    1
