@<TRIPOS>MOLECULE
1
 23 24 0 0 0
SMALL
GASTEIGER

@<TRIPOS>ATOM
      1 N           3.6078   10.4378    5.9701 N.pl3   1  UNL1       -0.2150
      2 C           3.5687   11.5609    6.7665 C.ar    1  UNL1        0.0537
      3 C           2.6593   11.6385    7.8354 C.ar    1  UNL1       -0.0387
      4 C           2.6707   12.7207    8.6930 C.ar    1  UNL1       -0.0599
      5 C           3.5751   13.7579    8.5152 C.ar    1  UNL1       -0.0616
      6 C           4.4702   13.7018    7.4585 C.ar    1  UNL1       -0.0599
      7 C           4.4715   12.6250    6.5948 C.ar    1  UNL1       -0.0387
      8 C           3.7599   10.5607    4.6116 C.ar    1  UNL1        0.0537
      9 C           3.3494   11.6982    3.8939 C.ar    1  UNL1       -0.0387
     10 C           3.4538   11.7444    2.5198 C.ar    1  UNL1       -0.0599
     11 C           3.9769   10.6750    1.8100 C.ar    1  UNL1       -0.0616
     12 C           4.3961    9.5489    2.5014 C.ar    1  UNL1       -0.0599
     13 C           4.2965    9.4897    3.8771 C.ar    1  UNL1       -0.0387
     14 H           1.9430   10.8307    7.9511 H       1  UNL1        0.0637
     15 H           1.9587   12.7661    9.5059 H       1  UNL1        0.0618
     16 H           3.5777   14.6027    9.1872 H       1  UNL1        0.0618
     17 H           5.1777   14.5052    7.3081 H       1  UNL1        0.0618
     18 H           5.1773   12.5879    5.7744 H       1  UNL1        0.0637
     19 H           2.9231   12.5352    4.4291 H       1  UNL1        0.0637
     20 H           3.1163   12.6254    1.9925 H       1  UNL1        0.0618
     21 H           4.0534   10.7175    0.7341 H       1  UNL1        0.0618
     22 H           4.8095    8.7098    1.9575 H       1  UNL1        0.0618
     23 H           4.6274    8.6125    4.4240 H       1  UNL1        0.0637
@<TRIPOS>BOND
     1    21    11    1
     2    11    12   ar
     3    11    10   ar
     4    22    12    1
     5    20    10    1
     6    12    13   ar
     7    10     9   ar
     8    13    23    1
     9    13     8   ar
    10     9    19    1
    11     9     8   ar
    12     8     1    1
    13    18     7    1
    14     1     2    1
    15     7     2   ar
    16     7     6   ar
    17     2     3   ar
    18    17     6    1
    19     6     5   ar
    20     3    14    1
    21     3     4   ar
    22     5     4   ar
    23     5    16    1
    24     4    15    1
