@<TRIPOS>MOLECULE
1
 26 27 0 0 0
SMALL
GASTEIGER

@<TRIPOS>ATOM
      1 N           1.3368    8.7479    5.8835 N.3     1  UNL1        0.0000
      2 SI          0.2359    9.9823    5.4663 Si      1  UNL1        0.0000
      3 C          -1.2498    9.9376    6.6587 C.ar    1  UNL1        0.0000
      4 C          -1.3729   10.8649    7.6873 C.ar    1  UNL1        0.0000
      5 C          -2.4014   10.7871    8.6095 C.ar    1  UNL1        0.0000
      6 C          -3.3344    9.7680    8.5211 C.ar    1  UNL1        0.0000
      7 C          -3.2307    8.8336    7.5046 C.ar    1  UNL1        0.0000
      8 C          -2.1971    8.9211    6.5889 C.ar    1  UNL1        0.0000
      9 C          -0.3656    9.7252    3.6841 C.ar    1  UNL1        0.0000
     10 C          -1.6648    9.9925    3.2701 C.ar    1  UNL1        0.0000
     11 C          -2.0501    9.8019    1.9546 C.ar    1  UNL1        0.0000
     12 C          -1.1335    9.3422    1.0240 C.ar    1  UNL1        0.0000
     13 C           0.1672    9.0740    1.4178 C.ar    1  UNL1        0.0000
     14 C           0.5411    9.2630    2.7354 C.ar    1  UNL1        0.0000
     15 H           0.9299    7.8200    5.7822 H       1  UNL1        0.0000
     16 H           0.8308   11.3331    5.5640 H       1  UNL1        0.0000
     17 H          -0.6504   11.6663    7.7594 H       1  UNL1        0.0000
     18 H          -2.4785   11.5209    9.4002 H       1  UNL1        0.0000
     19 H          -4.1398    9.7034    9.2392 H       1  UNL1        0.0000
     20 H          -3.9579    8.0368    7.4275 H       1  UNL1        0.0000
     21 H          -2.1260    8.1886    5.7954 H       1  UNL1        0.0000
     22 H          -2.3842   10.3536    3.9922 H       1  UNL1        0.0000
     23 H          -3.0667   10.0127    1.6519 H       1  UNL1        0.0000
     24 H          -1.4321    9.1944   -0.0044 H       1  UNL1        0.0000
     25 H           0.8894    8.7194    0.6955 H       1  UNL1        0.0000
     26 H           1.5578    9.0570    3.0453 H       1  UNL1        0.0000
@<TRIPOS>BOND
     1    24    12    1
     2    25    13    1
     3    12    13   ar
     4    12    11   ar
     5    13    14   ar
     6    23    11    1
     7    11    10   ar
     8    14    26    1
     9    14     9   ar
    10    10     9   ar
    11    10    22    1
    12     9     2    1
    13     2    16    1
    14     2     1    1
    15     2     3    1
    16    15     1    1
    17    21     8    1
    18     8     3   ar
    19     8     7   ar
    20     3     4   ar
    21    20     7    1
    22     7     6   ar
    23     4    17    1
    24     4     5   ar
    25     6     5   ar
    26     6    19    1
    27     5    18    1
