@<TRIPOS>MOLECULE
3
 27 26 0 0 0
SMALL
GASTEIGER

@<TRIPOS>ATOM
      1 SI          4.2013    2.0275   15.2245 Si      1  UNL1        0.0000
      2 SI          2.7820    1.1485   12.7326 Si      1  UNL1        0.0000
      3 N           3.1868    2.3784   13.8785 N.3     1  UNL1        0.0000
      4 C           6.0594    1.9681   14.7409 C.3     1  UNL1        0.0000
      5 H           6.3017    1.0222   14.2693 H       1  UNL1        0.0000
      6 H           6.7058    2.0764   15.6061 H       1  UNL1        0.0000
      7 H           6.3120    2.7597   14.0428 H       1  UNL1        0.0000
      8 C           3.9758    3.3732   16.5755 C.3     1  UNL1        0.0000
      9 H           3.6543    4.3185   16.1371 H       1  UNL1        0.0000
     10 H           4.9064    3.5486   17.1056 H       1  UNL1        0.0000
     11 H           3.2365    3.0736   17.3116 H       1  UNL1        0.0000
     12 C           3.8330    0.3733   16.1200 C.3     1  UNL1        0.0000
     13 H           3.9814   -0.4686   15.4543 H       1  UNL1        0.0000
     14 H           2.8090    0.3307   16.4770 H       1  UNL1        0.0000
     15 H           4.4855    0.2342   16.9762 H       1  UNL1        0.0000
     16 C           4.1931   -0.0892   12.3418 C.3     1  UNL1        0.0000
     17 H           3.9445   -0.7040   11.4826 H       1  UNL1        0.0000
     18 H           4.3671   -0.7536   13.1801 H       1  UNL1        0.0000
     19 H           5.1285    0.4152   12.1280 H       1  UNL1        0.0000
     20 C           1.2787    0.1113   13.3147 C.3     1  UNL1        0.0000
     21 H           0.9899   -0.6295   12.5754 H       1  UNL1        0.0000
     22 H           0.4252    0.7581   13.4933 H       1  UNL1        0.0000
     23 H           1.4958   -0.4145   14.2383 H       1  UNL1        0.0000
     24 C           2.2902    1.9448   11.0639 C.3     1  UNL1        0.0000
     25 H           1.8225    1.2137   10.4111 H       1  UNL1        0.0000
     26 H           3.1414    2.3569   10.5306 H       1  UNL1        0.0000
     27 H           1.5729    2.7459   11.2277 H       1  UNL1        0.0000
@<TRIPOS>BOND
     1    25    24    1
     2    26    24    1
     3    24    27    1
     4    24     2    1
     5    17    16    1
     6    19    16    1
     7    16     2    1
     8    16    18    1
     9    21    20    1
    10     2    20    1
    11     2     3    1
    12    20    22    1
    13    20    23    1
    14     3     1    1
    15     7     4    1
    16     5     4    1
    17     4     1    1
    18     4     6    1
    19     1    12    1
    20     1     8    1
    21    13    12    1
    22    12    14    1
    23    12    15    1
    24     9     8    1
    25     8    10    1
    26     8    11    1
