@<TRIPOS>MOLECULE
3
 27 26 0 0 0
SMALL
GASTEIGER

@<TRIPOS>ATOM
      1 SI         -0.9431    4.1693   11.9056 Si      1  UNL1        0.0000
      2 SI         -0.9157    3.5495   14.8086 Si      1  UNL1        0.0000
      3 N          -0.0620    4.0407   13.3863 N.3     1  UNL1        0.0000
      4 C           0.1222    5.0466   10.5657 C.3     1  UNL1        0.0000
      5 H          -0.2081    6.0674   10.3985 H       1  UNL1        0.0000
      6 H           0.0429    4.5267    9.6161 H       1  UNL1        0.0000
      7 H           1.1776    5.0716   10.8302 H       1  UNL1        0.0000
      8 C          -1.4929    2.4867   11.1656 C.3     1  UNL1        0.0000
      9 H          -0.7054    1.7432   11.2263 H       1  UNL1        0.0000
     10 H          -1.7742    2.5875   10.1214 H       1  UNL1        0.0000
     11 H          -2.3527    2.0944   11.6966 H       1  UNL1        0.0000
     12 C          -2.5408    5.2152   12.0699 C.3     1  UNL1        0.0000
     13 H          -2.3651    6.1296   12.6261 H       1  UNL1        0.0000
     14 H          -3.3053    4.6563   12.5976 H       1  UNL1        0.0000
     15 H          -2.9445    5.4846   11.0988 H       1  UNL1        0.0000
     16 C          -2.0930    2.0492   14.6338 C.3     1  UNL1        0.0000
     17 H          -2.4411    1.7142   15.6059 H       1  UNL1        0.0000
     18 H          -1.6245    1.2037   14.1437 H       1  UNL1        0.0000
     19 H          -2.9668    2.3221   14.0525 H       1  UNL1        0.0000
     20 C          -2.0084    4.9117   15.6019 C.3     1  UNL1        0.0000
     21 H          -2.2920    4.6439   16.6152 H       1  UNL1        0.0000
     22 H          -2.9220    5.0583   15.0375 H       1  UNL1        0.0000
     23 H          -1.4942    5.8641   15.6451 H       1  UNL1        0.0000
     24 C           0.4327    3.0957   16.0912 C.3     1  UNL1        0.0000
     25 H          -0.0031    2.7033   17.0054 H       1  UNL1        0.0000
     26 H           1.0043    3.9841   16.3613 H       1  UNL1        0.0000
     27 H           1.1113    2.3393   15.6981 H       1  UNL1        0.0000
@<TRIPOS>BOND
     1     6     4    1
     2    10     8    1
     3     5     4    1
     4     4     7    1
     5     4     1    1
     6    15    12    1
     7     8     9    1
     8     8    11    1
     9     8     1    1
    10     1    12    1
    11     1     3    1
    12    12    14    1
    13    12    13    1
    14     3     2    1
    15    19    16    1
    16    18    16    1
    17    16     2    1
    18    16    17    1
    19     2    20    1
    20     2    24    1
    21    22    20    1
    22    20    23    1
    23    20    21    1
    24    27    24    1
    25    24    26    1
    26    24    25    1
