@<TRIPOS>MOLECULE
3
 27 26 0 0 0
SMALL
GASTEIGER

@<TRIPOS>ATOM
      1 SI         -1.1740    4.2976   11.8065 Si      1  UNL1        0.0000
      2 SI         -1.0433    3.6052   14.7131 Si      1  UNL1        0.0000
      3 N          -0.2671    4.1016   13.2556 N.3     1  UNL1        0.0000
      4 C           0.0367    4.9647   10.4638 C.3     1  UNL1        0.0000
      5 H          -0.0330    6.0439   10.3607 H       1  UNL1        0.0000
      6 H          -0.1998    4.5385    9.4940 H       1  UNL1        0.0000
      7 H           1.0741    4.7008   10.6858 H       1  UNL1        0.0000
      8 C          -1.9791    2.7193   11.0707 C.3     1  UNL1        0.0000
      9 H          -1.2654    1.9135   10.9370 H       1  UNL1        0.0000
     10 H          -2.4274    2.9254   10.1031 H       1  UNL1        0.0000
     11 H          -2.7645    2.3527   11.7214 H       1  UNL1        0.0000
     12 C          -2.6189    5.5515   11.9483 C.3     1  UNL1        0.0000
     13 H          -2.3709    6.3796   12.6022 H       1  UNL1        0.0000
     14 H          -3.4942    5.0637   12.3632 H       1  UNL1        0.0000
     15 H          -2.9003    5.9580   10.9817 H       1  UNL1        0.0000
     16 C          -2.1239    2.0321   14.5698 C.3     1  UNL1        0.0000
     17 H          -2.3027    1.5805   15.5403 H       1  UNL1        0.0000
     18 H          -1.6548    1.2863   13.9378 H       1  UNL1        0.0000
     19 H          -3.0899    2.2685   14.1372 H       1  UNL1        0.0000
     20 C          -2.1591    4.9456   15.5065 C.3     1  UNL1        0.0000
     21 H          -2.5227    4.6309   16.4796 H       1  UNL1        0.0000
     22 H          -3.0233    5.1505   14.8857 H       1  UNL1        0.0000
     23 H          -1.6230    5.8786   15.6409 H       1  UNL1        0.0000
     24 C           0.3414    3.2331   15.9822 C.3     1  UNL1        0.0000
     25 H          -0.0792    2.9169   16.9327 H       1  UNL1        0.0000
     26 H           0.9319    4.1290   16.1757 H       1  UNL1        0.0000
     27 H           0.9988    2.4367   15.6359 H       1  UNL1        0.0000
@<TRIPOS>BOND
     1     6     4    1
     2    10     8    1
     3     5     4    1
     4     4     7    1
     5     4     1    1
     6     9     8    1
     7    15    12    1
     8     8    11    1
     9     8     1    1
    10     1    12    1
    11     1     3    1
    12    12    14    1
    13    12    13    1
    14     3     2    1
    15    18    16    1
    16    19    16    1
    17    16     2    1
    18    16    17    1
    19     2    20    1
    20     2    24    1
    21    22    20    1
    22    20    23    1
    23    20    21    1
    24    27    24    1
    25    24    26    1
    26    24    25    1
