@<TRIPOS>MOLECULE
3
 27 26 0 0 0
SMALL
GASTEIGER

@<TRIPOS>ATOM
      1 SI          4.1860    1.9833   15.2801 Si      1  UNL1        0.0000
      2 SI          2.6325    0.8687   12.9548 Si      1  UNL1        0.0000
      3 N           3.0694    2.1728   13.9915 N.3     1  UNL1        0.0000
      4 C           6.0109    1.9131   14.6905 C.3     1  UNL1        0.0000
      5 H           6.2548    0.9257   14.3147 H       1  UNL1        0.0000
      6 H           6.7107    2.1440   15.4873 H       1  UNL1        0.0000
      7 H           6.1827    2.6217   13.8871 H       1  UNL1        0.0000
      8 C           3.9893    3.4952   16.4501 C.3     1  UNL1        0.0000
      9 H           3.6900    4.3846   15.8882 H       1  UNL1        0.0000
     10 H           4.9233    3.7180   16.9563 H       1  UNL1        0.0000
     11 H           3.2414    3.3067   17.2141 H       1  UNL1        0.0000
     12 C           3.9202    0.4302   16.3694 C.3     1  UNL1        0.0000
     13 H           4.0930   -0.4716   15.7927 H       1  UNL1        0.0000
     14 H           2.9066    0.3841   16.7532 H       1  UNL1        0.0000
     15 H           4.5968    0.4133   17.2179 H       1  UNL1        0.0000
     16 C           4.1020   -0.2080   12.3537 C.3     1  UNL1        0.0000
     17 H           3.8066   -0.8907   11.5634 H       1  UNL1        0.0000
     18 H           4.4930   -0.8019   13.1724 H       1  UNL1        0.0000
     19 H           4.9167    0.4027   11.9790 H       1  UNL1        0.0000
     20 C           1.3580   -0.3284   13.7422 C.3     1  UNL1        0.0000
     21 H           1.0144   -1.0739   13.0321 H       1  UNL1        0.0000
     22 H           0.4894    0.2140   14.1016 H       1  UNL1        0.0000
     23 H           1.7893   -0.8539   14.5866 H       1  UNL1        0.0000
     24 C           1.7930    1.6367   11.4111 C.3     1  UNL1        0.0000
     25 H           1.4093    0.8661   10.7481 H       1  UNL1        0.0000
     26 H           2.4849    2.2435   10.8296 H       1  UNL1        0.0000
     27 H           0.9458    2.2524   11.7203 H       1  UNL1        0.0000
@<TRIPOS>BOND
     1    25    24    1
     2    26    24    1
     3    24    27    1
     4    24     2    1
     5    17    16    1
     6    19    16    1
     7    16     2    1
     8    16    18    1
     9     2    20    1
    10     2     3    1
    11    21    20    1
    12    20    22    1
    13    20    23    1
    14     7     4    1
    15     3     1    1
    16     5     4    1
    17     4     1    1
    18     4     6    1
    19     1    12    1
    20     1     8    1
    21    13    12    1
    22     9     8    1
    23    12    14    1
    24    12    15    1
    25     8    10    1
    26     8    11    1
