@<TRIPOS>MOLECULE
1
 27 26 0 0 0
SMALL
GASTEIGER

@<TRIPOS>ATOM
      1 N           9.3260    3.4465    1.8270 N.3     1  UNL1        0.0000
      2 SI          9.3110    2.7570    0.2467 Si      1  UNL1        0.0000
      3 C           9.8775    3.9024   -1.1738 C.3     1  UNL1        0.0000
      4 H          10.8494    4.3338   -0.9638 H       1  UNL1        0.0000
      5 H           9.1833    4.7200   -1.3235 H       1  UNL1        0.0000
      6 H           9.9520    3.3597   -2.1108 H       1  UNL1        0.0000
      7 SI          9.9456    5.0177    2.1269 Si      1  UNL1        0.0000
      8 C           7.5554    2.1551   -0.2275 C.3     1  UNL1        0.0000
      9 H           7.1033    1.5866    0.5787 H       1  UNL1        0.0000
     10 H           7.5952    1.5111   -1.1006 H       1  UNL1        0.0000
     11 H           6.9017    2.9863   -0.4657 H       1  UNL1        0.0000
     12 C          10.4434    1.2166    0.0902 C.3     1  UNL1        0.0000
     13 H          11.4683    1.4469    0.3651 H       1  UNL1        0.0000
     14 H          10.4566    0.8515   -0.9322 H       1  UNL1        0.0000
     15 H          10.0834    0.4100    0.7198 H       1  UNL1        0.0000
     16 C           9.2389    6.4144    1.0165 C.3     1  UNL1        0.0000
     17 H           9.9373    6.6593    0.2244 H       1  UNL1        0.0000
     18 H           9.0451    7.3263    1.5730 H       1  UNL1        0.0000
     19 H           8.3125    6.1082    0.5436 H       1  UNL1        0.0000
     20 C           9.4731    5.4373    3.9416 C.3     1  UNL1        0.0000
     21 H           9.1278    6.4612    4.0442 H       1  UNL1        0.0000
     22 H          10.3324    5.3170    4.5938 H       1  UNL1        0.0000
     23 H           8.6677    4.7819    4.2928 H       1  UNL1        0.0000
     24 C          11.8519    5.1746    2.0028 C.3     1  UNL1        0.0000
     25 H          12.1833    6.1936    2.1782 H       1  UNL1        0.0000
     26 H          12.1964    4.8815    1.0168 H       1  UNL1        0.0000
     27 H          12.3439    4.5355    2.7270 H       1  UNL1        0.0000
@<TRIPOS>BOND
     1     6     3    1
     2     5     3    1
     3     3     4    1
     4     3     2    1
     5    10     8    1
     6    14    12    1
     7    11     8    1
     8     8     2    1
     9     8     9    1
    10    12     2    1
    11    12    13    1
    12    12    15    1
    13    17    16    1
    14     2     1    1
    15    19    16    1
    16    16    18    1
    17    16     7    1
    18    26    24    1
    19     1     7    1
    20    24     7    1
    21    24    25    1
    22    24    27    1
    23     7    20    1
    24    20    21    1
    25    20    23    1
    26    20    22    1
