@<TRIPOS>MOLECULE
27
 27 26 0 0 0
SMALL
GASTEIGER

@<TRIPOS>ATOM
      1 SI          2.4986    4.8262    3.8516 Si      1  UNL1        0.0000
      2 C           1.0396    3.6013    3.6557 C.3     1  UNL1        0.0000
      3 H           0.9696    2.9521    4.5212 H       1  UNL1        0.0000
      4 H           1.1626    2.9700    2.7810 H       1  UNL1        0.0000
      5 H           0.0920    4.1208    3.5574 H       1  UNL1        0.0000
      6 SI          1.7449    5.5164    6.6328 Si      1  UNL1        0.0000
      7 C           4.0784    3.7529    4.0060 C.3     1  UNL1        0.0000
      8 H           4.9769    4.3517    3.8964 H       1  UNL1        0.0000
      9 H           4.1033    2.9819    3.2418 H       1  UNL1        0.0000
     10 H           4.1246    3.2595    4.9696 H       1  UNL1        0.0000
     11 C           2.6592    5.7158    2.1593 C.3     1  UNL1        0.0000
     12 H           3.1169    6.7061    2.2567 H       1  UNL1        0.0000
     13 H           1.6947    5.8177    1.6695 H       1  UNL1        0.0000
     14 H           3.2890    5.1257    1.5015 H       1  UNL1        0.0000
     15 C          -0.1295    5.1397    6.7813 C.3     1  UNL1        0.0000
     16 H          -0.7338    6.0275    6.6437 H       1  UNL1        0.0000
     17 H          -0.3651    4.7312    7.7595 H       1  UNL1        0.0000
     18 H          -0.4359    4.4096    6.0411 H       1  UNL1        0.0000
     19 C           2.1252    6.9498    7.8432 C.3     1  UNL1        0.0000
     20 H           3.1928    7.1111    7.9552 H       1  UNL1        0.0000
     21 H           1.7252    6.7373    8.8296 H       1  UNL1        0.0000
     22 H           1.6684    7.8730    7.4971 H       1  UNL1        0.0000
     23 C           2.5522    3.9346    7.3497 C.3     1  UNL1        0.0000
     24 H           3.6321    4.0025    7.4068 H       1  UNL1        0.0000
     25 H           2.3095    3.0791    6.7287 H       1  UNL1        0.0000
     26 H           2.1838    3.7270    8.3498 H       1  UNL1        0.0000
     27 N           2.3079    6.0127    5.0815 N.3     1  UNL1        0.0000
@<TRIPOS>BOND
     1    14    11    1
     2    13    11    1
     3    11    12    1
     4    11     1    1
     5     4     2    1
     6     9     7    1
     7     5     2    1
     8     2     1    1
     9     2     3    1
    10     1     7    1
    11     1    27    1
    12     8     7    1
    13     7    10    1
    14    27     6    1
    15    18    15    1
    16     6    15    1
    17     6    23    1
    18     6    19    1
    19    16    15    1
    20    25    23    1
    21    15    17    1
    22    23    24    1
    23    23    26    1
    24    22    19    1
    25    19    20    1
    26    19    21    1
