@<TRIPOS>MOLECULE
3
 27 26 0 0 0
SMALL
GASTEIGER

@<TRIPOS>ATOM
      1 SI         15.7334    6.7430    8.0406 Si      1  UNL1        0.0000
      2 SI         16.4330    9.2552    6.5008 Si      1  UNL1        0.0000
      3 N          15.8000    8.4818    7.9357 N.3     1  UNL1        0.0000
      4 C          15.5097    6.2562    9.8779 C.3     1  UNL1        0.0000
      5 C          14.2742    6.0232    7.0314 C.3     1  UNL1        0.0000
      6 C          17.3447    5.8999    7.4455 C.3     1  UNL1        0.0000
      7 C          16.0545   11.1303    6.6106 C.3     1  UNL1        0.0000
      8 C          15.6292    8.5735    4.9070 C.3     1  UNL1        0.0000
      9 C          18.3317    9.0762    6.3253 C.3     1  UNL1        0.0000
     10 H          15.3927    5.1806    9.9761 H       1  UNL1        0.0000
     11 H          14.6302    6.7294   10.3128 H       1  UNL1        0.0000
     12 H          16.3872    6.5417   10.4582 H       1  UNL1        0.0000
     13 H          14.5063    5.9960    5.9729 H       1  UNL1        0.0000
     14 H          13.3680    6.6053    7.1563 H       1  UNL1        0.0000
     15 H          14.0644    5.0054    7.3439 H       1  UNL1        0.0000
     16 H          17.3382    4.8445    7.6981 H       1  UNL1        0.0000
     17 H          18.2219    6.3456    7.9039 H       1  UNL1        0.0000
     18 H          17.4560    5.9776    6.3697 H       1  UNL1        0.0000
     19 H          16.6331   11.6020    7.4058 H       1  UNL1        0.0000
     20 H          14.9997   11.3297    6.7876 H       1  UNL1        0.0000
     21 H          16.3251   11.6198    5.6797 H       1  UNL1        0.0000
     22 H          15.9455    7.5546    4.7159 H       1  UNL1        0.0000
     23 H          15.9308    9.1742    4.0561 H       1  UNL1        0.0000
     24 H          14.5460    8.5825    4.9511 H       1  UNL1        0.0000
     25 H          18.7254    9.8377    5.6589 H       1  UNL1        0.0000
     26 H          18.6125    8.1099    5.9209 H       1  UNL1        0.0000
     27 H          18.8282    9.1922    7.2840 H       1  UNL1        0.0000
@<TRIPOS>BOND
     1    23     8    1
     2    22     8    1
     3     8    24    1
     4     8     2    1
     5    25     9    1
     6    21     7    1
     7    26     9    1
     8    13     5    1
     9     9     2    1
    10     9    27    1
    11    18     6    1
    12     2     7    1
    13     2     3    1
    14     7    20    1
    15     7    19    1
    16     5    14    1
    17     5    15    1
    18     5     1    1
    19     6    16    1
    20     6    17    1
    21     6     1    1
    22     3     1    1
    23     1     4    1
    24     4    10    1
    25     4    11    1
    26     4    12    1
