@<TRIPOS>MOLECULE
3
 27 26 0 0 0
SMALL
GASTEIGER

@<TRIPOS>ATOM
      1 SI          3.6629    8.7309    7.9611 Si      1  UNL1        0.0000
      2 SI          1.1216    8.5500    6.3149 Si      1  UNL1        0.0000
      3 N           2.7634    8.9484    6.5350 N.3     1  UNL1        0.0000
      4 C           5.3463    9.6179    7.8916 C.3     1  UNL1        0.0000
      5 C           2.7569    9.4166    9.5198 C.3     1  UNL1        0.0000
      6 C           3.9950    6.8859    8.3991 C.3     1  UNL1        0.0000
      7 C          -0.1712    9.7298    7.1220 C.3     1  UNL1        0.0000
      8 C           0.7784    8.5456    4.4459 C.3     1  UNL1        0.0000
      9 C           0.6079    6.8403    7.0421 C.3     1  UNL1        0.0000
     10 H           5.2506   10.6795    8.0897 H       1  UNL1        0.0000
     11 H           5.7574    9.4994    6.8994 H       1  UNL1        0.0000
     12 H           6.0509    9.2103    8.6110 H       1  UNL1        0.0000
     13 H           1.8284    8.8802    9.6865 H       1  UNL1        0.0000
     14 H           2.5109   10.4662    9.4001 H       1  UNL1        0.0000
     15 H           3.3603    9.3177   10.4180 H       1  UNL1        0.0000
     16 H           3.0941    6.4036    8.7644 H       1  UNL1        0.0000
     17 H           4.7592    6.7765    9.1646 H       1  UNL1        0.0000
     18 H           4.3220    6.3425    7.5206 H       1  UNL1        0.0000
     19 H           0.0365    9.8712    8.1770 H       1  UNL1        0.0000
     20 H          -1.1817    9.3387    7.0366 H       1  UNL1        0.0000
     21 H          -0.1485   10.7030    6.6488 H       1  UNL1        0.0000
     22 H           1.7107    8.3557    3.9308 H       1  UNL1        0.0000
     23 H           0.4203    9.5179    4.1360 H       1  UNL1        0.0000
     24 H           0.0541    7.7987    4.1403 H       1  UNL1        0.0000
     25 H           0.6701    6.8582    8.1248 H       1  UNL1        0.0000
     26 H           1.2531    6.0438    6.6916 H       1  UNL1        0.0000
     27 H          -0.4131    6.5816    6.7759 H       1  UNL1        0.0000
@<TRIPOS>BOND
     1    22     8    1
     2    23     8    1
     3    24     8    1
     4     8     2    1
     5     2     3    1
     6     2     9    1
     7     2     7    1
     8     3     1    1
     9    21     7    1
    10    26     9    1
    11    27     9    1
    12    11     4    1
    13    20     7    1
    14     9    25    1
    15     7    19    1
    16    18     6    1
    17     4     1    1
    18     4    10    1
    19     4    12    1
    20     1     6    1
    21     1     5    1
    22     6    16    1
    23     6    17    1
    24    14     5    1
    25     5    13    1
    26     5    15    1
