@<TRIPOS>MOLECULE
3
 27 26 0 0 0
SMALL
GASTEIGER

@<TRIPOS>ATOM
      1 SI          1.8513   11.2586    2.3269 Si      1  UNL1        0.0000
      2 SI          1.5872   12.7395    5.0210 Si      1  UNL1        0.0000
      3 N           2.0877   11.4580    4.0075 N.3     1  UNL1        0.0000
      4 C           0.0183   11.1997    1.7341 C.3     1  UNL1        0.0000
      5 C           2.6924    9.6301    1.8123 C.3     1  UNL1        0.0000
      6 C           2.5766   12.7321    1.3211 C.3     1  UNL1        0.0000
      7 C           2.1283   12.3200    6.7973 C.3     1  UNL1        0.0000
      8 C           2.2809   14.4820    4.5769 C.3     1  UNL1        0.0000
      9 C          -0.3184   13.0086    4.9516 C.3     1  UNL1        0.0000
     10 H          -0.5192   12.0877    2.0499 H       1  UNL1        0.0000
     11 H          -0.5057   10.3396    2.1370 H       1  UNL1        0.0000
     12 H          -0.0445   11.1451    0.6506 H       1  UNL1        0.0000
     13 H           3.3526    9.3030    2.6124 H       1  UNL1        0.0000
     14 H           3.2827    9.7360    0.9084 H       1  UNL1        0.0000
     15 H           1.9634    8.8481    1.6335 H       1  UNL1        0.0000
     16 H           1.8788   13.5634    1.2985 H       1  UNL1        0.0000
     17 H           2.7869   12.4541    0.2924 H       1  UNL1        0.0000
     18 H           3.4985   13.0934    1.7626 H       1  UNL1        0.0000
     19 H           2.9908   12.9042    7.0962 H       1  UNL1        0.0000
     20 H           2.3968   11.2671    6.8473 H       1  UNL1        0.0000
     21 H           1.3440   12.5042    7.5238 H       1  UNL1        0.0000
     22 H           2.0320   14.7486    3.5551 H       1  UNL1        0.0000
     23 H           3.3609   14.5191    4.6708 H       1  UNL1        0.0000
     24 H           1.8679   15.2487    5.2270 H       1  UNL1        0.0000
     25 H          -0.5918   13.6082    4.0889 H       1  UNL1        0.0000
     26 H          -0.6861   13.5216    5.8356 H       1  UNL1        0.0000
     27 H          -0.8458   12.0647    4.8718 H       1  UNL1        0.0000
@<TRIPOS>BOND
     1    17     6    1
     2    12     4    1
     3    14     5    1
     4    16     6    1
     5     6    18    1
     6     6     1    1
     7    15     5    1
     8     4    10    1
     9     4    11    1
    10     4     1    1
    11     5     1    1
    12     5    13    1
    13     1     3    1
    14    22     8    1
    15     3     2    1
    16    25     9    1
    17     8    23    1
    18     8     2    1
    19     8    24    1
    20    27     9    1
    21     9     2    1
    22     9    26    1
    23     2     7    1
    24     7    20    1
    25     7    19    1
    26     7    21    1
