@<TRIPOS>MOLECULE
3
 27 26 0 0 0
SMALL
GASTEIGER

@<TRIPOS>ATOM
      1 SI          5.0786    7.3975    4.2375 Si      1  UNL1        0.0000
      2 SI          5.7514   10.3557    4.1802 Si      1  UNL1        0.0000
      3 N           4.7301    9.0364    4.5249 N.3     1  UNL1        0.0000
      4 C           3.5404    6.2931    4.4357 C.3     1  UNL1        0.0000
      5 C           6.4594    6.6839    5.3735 C.3     1  UNL1        0.0000
      6 C           5.7432    7.0829    2.4544 C.3     1  UNL1        0.0000
      7 C           5.8938   10.8804    2.3313 C.3     1  UNL1        0.0000
      8 C           5.0869   11.8586    5.1344 C.3     1  UNL1        0.0000
      9 C           7.5981   10.0828    4.6605 C.3     1  UNL1        0.0000
     10 H           2.8992    6.3357    3.5627 H       1  UNL1        0.0000
     11 H           2.9719    6.6448    5.2845 H       1  UNL1        0.0000
     12 H           3.8046    5.2524    4.6008 H       1  UNL1        0.0000
     13 H           7.4347    7.0637    5.0868 H       1  UNL1        0.0000
     14 H           6.5048    5.5985    5.3328 H       1  UNL1        0.0000
     15 H           6.2873    6.9727    6.4035 H       1  UNL1        0.0000
     16 H           6.6821    7.6050    2.3012 H       1  UNL1        0.0000
     17 H           5.0442    7.4416    1.7065 H       1  UNL1        0.0000
     18 H           5.9185    6.0274    2.2654 H       1  UNL1        0.0000
     19 H           6.1685   10.0368    1.7074 H       1  UNL1        0.0000
     20 H           6.6455   11.6523    2.1883 H       1  UNL1        0.0000
     21 H           4.9484   11.2635    1.9696 H       1  UNL1        0.0000
     22 H           4.4112   12.4233    4.5064 H       1  UNL1        0.0000
     23 H           5.8653   12.5251    5.4892 H       1  UNL1        0.0000
     24 H           4.5252   11.4973    5.9857 H       1  UNL1        0.0000
     25 H           8.0373    9.3095    4.0397 H       1  UNL1        0.0000
     26 H           7.7033    9.7714    5.6928 H       1  UNL1        0.0000
     27 H           8.1857   10.9863    4.5249 H       1  UNL1        0.0000
@<TRIPOS>BOND
     1    17     6    1
     2    19     7    1
     3    21     7    1
     4    20     7    1
     5    18     6    1
     6    16     6    1
     7     7     2    1
     8     6     1    1
     9    10     4    1
    10    25     9    1
    11     2     3    1
    12     2     9    1
    13     2     8    1
    14     1     4    1
    15     1     3    1
    16     1     5    1
    17     4    12    1
    18     4    11    1
    19    22     8    1
    20    27     9    1
    21     9    26    1
    22    13     5    1
    23     8    23    1
    24     8    24    1
    25    14     5    1
    26     5    15    1
