@<TRIPOS>MOLECULE
1
 21 20 0 0 0
SMALL
GASTEIGER

@<TRIPOS>ATOM
      1 N          11.3496    0.4192    1.7748 N.3     1  UNL1        0.0000
      2 SI         12.7416    0.4057    0.7508 Si      1  UNL1        0.0000
      3 H          13.3127    1.7768    0.6731 H       1  UNL1        0.0000
      4 C          12.4134   -0.1552   -1.0377 C.3     1  UNL1        0.0000
      5 H          11.7660    0.5397   -1.5595 H       1  UNL1        0.0000
      6 H          11.9400   -1.1298   -1.0632 H       1  UNL1        0.0000
      7 H          13.3420   -0.2195   -1.5943 H       1  UNL1        0.0000
      8 C          14.0764   -0.7578    1.4721 C.3     1  UNL1        0.0000
      9 H          13.9947   -0.7971    2.5560 H       1  UNL1        0.0000
     10 H          15.0813   -0.4273    1.2264 H       1  UNL1        0.0000
     11 H          13.9647   -1.7701    1.0971 H       1  UNL1        0.0000
     12 SI          9.9932   -0.5870    1.4572 Si      1  UNL1        0.0000
     13 H          10.3725   -1.9849    1.1228 H       1  UNL1        0.0000
     14 C           8.8939    0.0330    0.0224 C.3     1  UNL1        0.0000
     15 H           9.4560    0.0763   -0.9027 H       1  UNL1        0.0000
     16 H           8.4939    1.0251    0.2095 H       1  UNL1        0.0000
     17 H           8.0543   -0.6370   -0.1338 H       1  UNL1        0.0000
     18 C           8.8685   -0.7006    2.9980 C.3     1  UNL1        0.0000
     19 H           9.4315   -0.5347    3.9150 H       1  UNL1        0.0000
     20 H           8.4199   -1.6865    3.0629 H       1  UNL1        0.0000
     21 H           8.0564    0.0183    2.9634 H       1  UNL1        0.0000
@<TRIPOS>BOND
     1     7     4    1
     2     5     4    1
     3     6     4    1
     4     4     2    1
     5    15    14    1
     6    17    14    1
     7    14    16    1
     8    14    12    1
     9     3     2    1
    10     2     8    1
    11     2     1    1
    12    11     8    1
    13    13    12    1
    14    10     8    1
    15    12     1    1
    16    12    18    1
    17     8     9    1
    18    21    18    1
    19    18    20    1
    20    18    19    1
