@<TRIPOS>MOLECULE
1
 10 9 0 0 0
SMALL
GASTEIGER

@<TRIPOS>ATOM
      1 N           6.1167   19.0619    6.6722 N.3     1  UNL1       -0.3220
      2 H           6.7798   19.6779    6.1853 H       1  UNL1        0.1213
      3 C           5.2383   18.4720    5.6667 C.3     1  UNL1       -0.0161
      4 H           5.8503   17.8992    4.9688 H       1  UNL1        0.0388
      5 H           4.6728   19.2473    5.1292 H       1  UNL1        0.0388
      6 H           4.5355   17.7901    6.1516 H       1  UNL1        0.0388
      7 C           5.3795   19.8778    7.6317 C.3     1  UNL1       -0.0161
      8 H           4.6722   19.2472    8.1791 H       1  UNL1        0.0388
      9 H           4.8169   20.6789    7.1299 H       1  UNL1        0.0388
     10 H           6.0792   20.3391    8.3350 H       1  UNL1        0.0388
@<TRIPOS>BOND
     1     4     3    1
     2     5     3    1
     3     3     6    1
     4     3     1    1
     5     2     1    1
     6     1     7    1
     7     9     7    1
     8     7     8    1
     9     7    10    1
