@<TRIPOS>MOLECULE
1
 11 11 0 0 0
SMALL
GASTEIGER

@<TRIPOS>ATOM
      1 N           5.3531    5.7063   13.1905 N.pl3   1  UNL1       -0.2487
      2 C           5.1607    5.0151   14.3100 C.3     1  UNL1        0.0840
      3 H           5.0136    3.9467   14.2037 H       1  UNL1        0.0584
      4 C           5.1476    5.6059   15.5660 C.2     1  UNL1       -0.0600
      5 H           4.9823    5.0031   16.4453 H       1  UNL1        0.0592
      6 C           5.3504    6.9730   15.6642 C.2     1  UNL1       -0.0626
      7 H           5.3557    7.4631   16.6268 H       1  UNL1        0.0615
      8 C           5.5309    7.6967   14.4945 C.2     1  UNL1       -0.0466
      9 H           5.6725    8.7656   14.5215 H       1  UNL1        0.0630
     10 C           5.5141    7.0270   13.2802 C.2     1  UNL1        0.0121
     11 H           5.6151    7.5356   12.3260 H       1  UNL1        0.0797
@<TRIPOS>BOND
     1    11    10    1
     2     1    10    1
     3     1     2    1
     4    10     8    2
     5     3     2    1
     6     2     4    1
     7     8     9    1
     8     8     6    1
     9     4     6    2
    10     4     5    1
    11     6     7    1
