@<TRIPOS>MOLECULE
3
 21 20 0 0 0
SMALL
GASTEIGER

@<TRIPOS>ATOM
      1 SI          8.7676    5.3362   10.7837 Si      1  UNL1        0.0000
      2 SI          6.8933    3.1302   11.5973 Si      1  UNL1        0.0000
      3 N           7.3814    4.3522   10.4789 N.3     1  UNL1        0.0000
      4 C          10.3341    4.4043   11.3415 C.3     1  UNL1        0.0000
      5 C           8.4365    6.6473   12.1385 C.3     1  UNL1        0.0000
      6 C           8.0569    1.6124   11.6008 C.3     1  UNL1        0.0000
      7 C           6.7822    3.6959   13.4150 C.3     1  UNL1        0.0000
      8 H           9.0850    6.0344    9.4948 H       1  UNL1        0.0000
      9 H           5.5207    2.7005   11.1661 H       1  UNL1        0.0000
     10 H          10.2509    4.0759   12.3728 H       1  UNL1        0.0000
     11 H          11.2079    5.0447   11.2720 H       1  UNL1        0.0000
     12 H          10.5160    3.5280   10.7304 H       1  UNL1        0.0000
     13 H           7.3856    6.9165   12.1739 H       1  UNL1        0.0000
     14 H           9.0101    7.5519   11.9634 H       1  UNL1        0.0000
     15 H           8.7096    6.2745   13.1203 H       1  UNL1        0.0000
     16 H           8.2992    1.2858   10.5946 H       1  UNL1        0.0000
     17 H           7.6045    0.7763   12.1250 H       1  UNL1        0.0000
     18 H           8.9912    1.8410   12.1024 H       1  UNL1        0.0000
     19 H           7.7689    3.8224   13.8488 H       1  UNL1        0.0000
     20 H           6.2481    2.9689   14.0187 H       1  UNL1        0.0000
     21 H           6.2625    4.6433   13.5005 H       1  UNL1        0.0000
@<TRIPOS>BOND
     1     8     1    1
     2     3     1    1
     3     3     2    1
     4    16     6    1
     5    12     4    1
     6     1     4    1
     7     1     5    1
     8     9     2    1
     9    11     4    1
    10     4    10    1
    11     2     6    1
    12     2     7    1
    13     6    18    1
    14     6    17    1
    15    14     5    1
    16     5    13    1
    17     5    15    1
    18     7    21    1
    19     7    19    1
    20     7    20    1
