@<TRIPOS>MOLECULE
1
 16 15 0 0 0
SMALL
GASTEIGER

@<TRIPOS>ATOM
      1 N          -1.0718    7.2139   11.3951 N.3     1  UNL1       -0.3165
      2 H          -0.0721    7.0116   11.2817 H       1  UNL1        0.1219
      3 C          -2.9107    7.0438   13.0264 C.3     1  UNL1       -0.0526
      4 H          -3.3349    6.4175   13.8084 H       1  UNL1        0.0242
      5 H          -3.6350    7.1244   12.2175 H       1  UNL1        0.0242
      6 H          -2.7256    8.0420   13.4313 H       1  UNL1        0.0242
      7 C          -1.5980    6.4410   12.5311 C.3     1  UNL1       -0.0070
      8 H          -0.8619    6.4686   13.3444 H       1  UNL1        0.0421
      9 H          -1.7577    5.3908   12.2472 H       1  UNL1        0.0421
     10 C          -1.6976    6.8373   10.1081 C.3     1  UNL1       -0.0070
     11 H          -2.7689    6.6944   10.2640 H       1  UNL1        0.0421
     12 H          -1.5621    7.6657    9.4045 H       1  UNL1        0.0421
     13 C          -1.0622    5.5828    9.5153 C.3     1  UNL1       -0.0526
     14 H          -1.5548    5.3232    8.5827 H       1  UNL1        0.0242
     15 H          -1.1434    4.7303   10.1878 H       1  UNL1        0.0242
     16 H          -0.0106    5.7673    9.3014 H       1  UNL1        0.0242
@<TRIPOS>BOND
     1    14    13    1
     2    16    13    1
     3    12    10    1
     4    13    10    1
     5    13    15    1
     6    10    11    1
     7    10     1    1
     8     2     1    1
     9     1     7    1
    10     5     3    1
    11     9     7    1
    12     7     3    1
    13     7     8    1
    14     3     6    1
    15     3     4    1
