@<TRIPOS>MOLECULE
9
 102 103 0 0 0
SMALL
GASTEIGER

@<TRIPOS>ATOM
      1 SI          1.4224    6.1744    4.6376 Si      1  UNL1        0.0000
      2 SI          0.1788    6.8704    2.7051 Si      1  UNL1        0.0000
      3 SI          2.3800    8.2015    5.4855 Si      1  UNL1        0.0000
      4 SI         -0.1914    5.6245    6.3650 Si      1  UNL1        0.0000
      5 SI          3.6384    2.2788    3.9481 Si      1  UNL1        0.0000
      6 SI          1.7267    1.9413    2.5272 Si      1  UNL1        0.0000
      7 SI          5.6744    2.0745    2.7127 Si      1  UNL1        0.0000
      8 SI          3.6380    0.5502    5.6082 Si      1  UNL1        0.0000
      9 N           3.8727    4.1450    5.9684 N.pl3   1  UNL1        0.0000
     10 N           3.9175    5.4504    3.4219 N.pl3   1  UNL1        0.0000
     11 C          -1.1976    5.6503    2.1590 C.3     1  UNL1        0.0000
     12 H          -0.7867    4.7309    1.7574 H       1  UNL1        0.0000
     13 H          -1.8385    6.0813    1.3941 H       1  UNL1        0.0000
     14 H          -1.8314    5.3823    2.9985 H       1  UNL1        0.0000
     15 C           1.2812    7.1605    1.1620 C.3     1  UNL1        0.0000
     16 H           2.1867    7.6942    1.4324 H       1  UNL1        0.0000
     17 H           0.7705    7.7508    0.4056 H       1  UNL1        0.0000
     18 H           1.5839    6.2296    0.6951 H       1  UNL1        0.0000
     19 C          -0.7210    8.5446    2.9619 C.3     1  UNL1        0.0000
     20 H          -1.4086    8.4979    3.7993 H       1  UNL1        0.0000
     21 H          -1.2962    8.8391    2.0870 H       1  UNL1        0.0000
     22 H          -0.0122    9.3410    3.1660 H       1  UNL1        0.0000
     23 C           1.1029    9.3474    6.3460 C.3     1  UNL1        0.0000
     24 H           1.5551   10.2770    6.6840 H       1  UNL1        0.0000
     25 H           0.6637    8.8650    7.2127 H       1  UNL1        0.0000
     26 H           0.2936    9.6084    5.6719 H       1  UNL1        0.0000
     27 C           3.1512    9.3075    4.1207 C.3     1  UNL1        0.0000
     28 H           3.6479   10.1824    4.5330 H       1  UNL1        0.0000
     29 H           2.3851    9.6623    3.4385 H       1  UNL1        0.0000
     30 H           3.8816    8.7650    3.5301 H       1  UNL1        0.0000
     31 C           3.7382    7.9043    6.8194 C.3     1  UNL1        0.0000
     32 H           4.7029    8.3038    6.5200 H       1  UNL1        0.0000
     33 H           3.8720    6.8455    7.0192 H       1  UNL1        0.0000
     34 H           3.4748    8.3736    7.7629 H       1  UNL1        0.0000
     35 C          -0.9133    3.8515    6.5436 C.3     1  UNL1        0.0000
     36 H          -1.4929    3.5741    5.6699 H       1  UNL1        0.0000
     37 H          -1.5768    3.7875    7.4035 H       1  UNL1        0.0000
     38 H          -0.1434    3.0973    6.6762 H       1  UNL1        0.0000
     39 C          -1.7545    6.7112    6.1569 C.3     1  UNL1        0.0000
     40 H          -2.2516    6.5088    5.2138 H       1  UNL1        0.0000
     41 H          -1.5001    7.7654    6.1726 H       1  UNL1        0.0000
     42 H          -2.4792    6.5398    6.9491 H       1  UNL1        0.0000
     43 C           0.5021    6.0302    8.1137 C.3     1  UNL1        0.0000
     44 H           1.5163    6.4099    8.0604 H       1  UNL1        0.0000
     45 H           0.5156    5.1577    8.7601 H       1  UNL1        0.0000
     46 H          -0.0995    6.7863    8.6094 H       1  UNL1        0.0000
     47 C           1.4952    2.7590    0.8019 C.3     1  UNL1        0.0000
     48 H           1.2551    3.8150    0.8818 H       1  UNL1        0.0000
     49 H           0.6853    2.2872    0.2501 H       1  UNL1        0.0000
     50 H           2.3891    2.6667    0.1941 H       1  UNL1        0.0000
     51 C           0.3090    2.6108    3.6160 C.3     1  UNL1        0.0000
     52 H           0.5164    3.6452    3.9038 H       1  UNL1        0.0000
     53 H           0.2296    2.0240    4.5235 H       1  UNL1        0.0000
     54 H          -0.6632    2.5912    3.1336 H       1  UNL1        0.0000
     55 C           1.3995    0.0813    2.2048 C.3     1  UNL1        0.0000
     56 H           0.4965   -0.0859    1.6238 H       1  UNL1        0.0000
     57 H           1.2883   -0.4585    3.1391 H       1  UNL1        0.0000
     58 H           2.2228   -0.3725    1.6617 H       1  UNL1        0.0000
     59 C           1.9929    0.5372    6.5960 C.3     1  UNL1        0.0000
     60 H           1.7890    1.5076    7.0368 H       1  UNL1        0.0000
     61 H           2.0123   -0.1869    7.4063 H       1  UNL1        0.0000
     62 H           1.1538    0.2813    5.9564 H       1  UNL1        0.0000
     63 C           5.0339    0.8090    6.8970 C.3     1  UNL1        0.0000
     64 H           4.8259    1.6584    7.5386 H       1  UNL1        0.0000
     65 H           5.9842    0.9999    6.4078 H       1  UNL1        0.0000
     66 H           5.1669   -0.0583    7.5381 H       1  UNL1        0.0000
     67 C           3.8437   -1.2547    4.9857 C.3     1  UNL1        0.0000
     68 H           3.5791   -1.9791    5.7523 H       1  UNL1        0.0000
     69 H           4.8670   -1.4564    4.6885 H       1  UNL1        0.0000
     70 H           3.2124   -1.4493    4.1252 H       1  UNL1        0.0000
     71 C           6.5192    0.3774    3.0078 C.3     1  UNL1        0.0000
     72 H           5.8719   -0.4357    2.6962 H       1  UNL1        0.0000
     73 H           6.7512    0.2272    4.0574 H       1  UNL1        0.0000
     74 H           7.4496    0.2826    2.4534 H       1  UNL1        0.0000
     75 C           7.0624    3.3557    3.0432 C.3     1  UNL1        0.0000
     76 H           6.7003    4.3735    2.9483 H       1  UNL1        0.0000
     77 H           7.8860    3.2417    2.3424 H       1  UNL1        0.0000
     78 H           7.4739    3.2400    4.0415 H       1  UNL1        0.0000
     79 C           5.3450    2.1209    0.8251 C.3     1  UNL1        0.0000
     80 H           4.5940    1.3874    0.5491 H       1  UNL1        0.0000
     81 H           6.2407    1.8996    0.2510 H       1  UNL1        0.0000
     82 H           4.9881    3.0942    0.5085 H       1  UNL1        0.0000
     83 C           5.2003    4.2959    6.1499 C.3     1  UNL1        0.0000
     84 H           5.7954    4.3080    5.2520 H       1  UNL1        0.0000
     85 C           5.7852    4.4164    7.3919 C.2     1  UNL1        0.0000
     86 H           6.8537    4.5463    7.4666 H       1  UNL1        0.0000
     87 C           4.9977    4.3568    8.5342 C.2     1  UNL1        0.0000
     88 H           5.4271    4.4439    9.5185 H       1  UNL1        0.0000
     89 C           3.6279    4.1519    8.3588 C.2     1  UNL1        0.0000
     90 H           2.9704    4.0742    9.2099 H       1  UNL1        0.0000
     91 C           3.1233    4.0422    7.0886 C.2     1  UNL1        0.0000
     92 H           2.0654    3.8790    6.9130 H       1  UNL1        0.0000
     93 C           4.8556    6.3142    3.8487 C.3     1  UNL1        0.0000
     94 H           4.8735    6.5050    4.9083 H       1  UNL1        0.0000
     95 C           5.7482    6.9497    3.0106 C.2     1  UNL1        0.0000
     96 H           6.4794    7.6267    3.4251 H       1  UNL1        0.0000
     97 C           5.6867    6.7222    1.6423 C.2     1  UNL1        0.0000
     98 H           6.3614    7.2129    0.9600 H       1  UNL1        0.0000
     99 C           4.7100    5.8397    1.1871 C.2     1  UNL1        0.0000
    100 H           4.6073    5.6333    0.1332 H       1  UNL1        0.0000
    101 C           3.8681    5.2385    2.0914 C.2     1  UNL1        0.0000
    102 H           3.1024    4.5482    1.7706 H       1  UNL1        0.0000
@<TRIPOS>BOND
     1   100    99    1
     2    50    47    1
     3    49    47    1
     4    81    79    1
     5    17    15    1
     6    82    79    1
     7    80    79    1
     8    18    15    1
     9    47    48    1
    10    47     6    1
    11    79     7    1
    12    98    97    1
    13    15    16    1
    14    15     2    1
    15    99    97    1
    16    99   101    2
    17    13    11    1
    18    56    55    1
    19    97    95    2
    20    58    55    1
    21    12    11    1
    22   102   101    1
    23    21    19    1
    24   101    10    1
    25    11     2    1
    26    11    14    1
    27    55     6    1
    28    55    57    1
    29    77    75    1
    30    74    71    1
    31     6    51    1
    32     6     5    1
    33    72    71    1
    34     2    19    1
    35     2     1    1
    36     7    71    1
    37     7    75    1
    38     7     5    1
    39    76    75    1
    40    19    22    1
    41    19    20    1
    42    71    73    1
    43    95    96    1
    44    95    93    1
    45    75    78    1
    46    54    51    1
    47    10    93    1
    48    29    27    1
    49    30    27    1
    50    51    52    1
    51    51    53    1
    52    93    94    1
    53     5     8    1
    54    27    28    1
    55    27     3    1
    56    70    67    1
    57     1     3    1
    58     1     4    1
    59    69    67    1
    60    67     8    1
    61    67    68    1
    62    40    39    1
    63    84    83    1
    64     3    23    1
    65     3    31    1
    66     8    59    1
    67     8    63    1
    68    36    35    1
    69    26    23    1
    70    62    59    1
    71     9    83    1
    72     9    91    1
    73    83    85    1
    74    39    41    1
    75    39     4    1
    76    39    42    1
    77    23    24    1
    78    23    25    1
    79     4    35    1
    80     4    43    1
    81    65    63    1
    82    32    31    1
    83    35    38    1
    84    35    37    1
    85    59    60    1
    86    59    61    1
    87    31    33    1
    88    31    34    1
    89    63    66    1
    90    63    64    1
    91    92    91    1
    92    91    89    2
    93    85    86    1
    94    85    87    2
    95    44    43    1
    96    43    46    1
    97    43    45    1
    98    89    87    1
    99    89    90    1
   100    87    88    1
   101     1    10    0
   102     5     9    0
   103     5    10    0
