@<TRIPOS>MOLECULE
2
 43 43 0 0 0
SMALL
GASTEIGER

@<TRIPOS>ATOM
      1 SI          5.1474   -0.0890    9.3292 Si      1  UNL1        0.0000
      2 N           4.5165    0.8968   10.6313 N.pl3   1  UNL1        0.0000
      3 C           5.3627    1.3720   11.6525 C.ar    1  UNL1        0.0000
      4 C           5.3641    0.7507   12.9214 C.ar    1  UNL1        0.0000
      5 C           6.2847    1.1459   13.8796 C.ar    1  UNL1        0.0000
      6 C           7.1900    2.1592   13.6287 C.ar    1  UNL1        0.0000
      7 C           7.1504    2.8118   12.4139 C.ar    1  UNL1        0.0000
      8 C           6.2473    2.4460   11.4257 C.ar    1  UNL1        0.0000
      9 C           4.3835   -0.3603   13.2259 C.3     1  UNL1        0.0000
     10 C           4.0058   -0.4564   14.7064 C.3     1  UNL1        0.0000
     11 C           4.9541   -1.7091   12.7775 C.3     1  UNL1        0.0000
     12 C           6.2262    3.2284   10.1336 C.3     1  UNL1        0.0000
     13 C           6.2220    4.7417   10.3844 C.3     1  UNL1        0.0000
     14 C           7.4337    2.8775    9.2619 C.3     1  UNL1        0.0000
     15 C           4.0723   -1.6590    9.0951 C.3     1  UNL1        0.0000
     16 C           5.2063    0.7997    7.6249 C.3     1  UNL1        0.0000
     17 C           6.9124   -0.6982    9.7695 C.3     1  UNL1        0.0000
     18 H           6.3076    0.6491   14.8363 H       1  UNL1        0.0000
     19 H           7.9124    2.4427   14.3791 H       1  UNL1        0.0000
     20 H           7.8414    3.6189   12.2256 H       1  UNL1        0.0000
     21 H           3.4602   -0.1540   12.6426 H       1  UNL1        0.0000
     22 H           4.8122   -0.9039   15.2827 H       1  UNL1        0.0000
     23 H           3.1300   -1.0908   14.8187 H       1  UNL1        0.0000
     24 H           3.7857    0.5203   15.1295 H       1  UNL1        0.0000
     25 H           5.2647   -1.6665   11.7399 H       1  UNL1        0.0000
     26 H           4.2049   -2.4893   12.8914 H       1  UNL1        0.0000
     27 H           5.8214   -1.9629   13.3842 H       1  UNL1        0.0000
     28 H           5.3081    2.9565    9.6011 H       1  UNL1        0.0000
     29 H           5.5512    5.0124   11.1967 H       1  UNL1        0.0000
     30 H           5.9080    5.2667    9.4850 H       1  UNL1        0.0000
     31 H           7.2169    5.0948   10.6447 H       1  UNL1        0.0000
     32 H           8.3556    3.1490    9.7723 H       1  UNL1        0.0000
     33 H           7.3870    3.4215    8.3212 H       1  UNL1        0.0000
     34 H           7.4591    1.8152    9.0511 H       1  UNL1        0.0000
     35 H           3.9134   -2.2268   10.0075 H       1  UNL1        0.0000
     36 H           4.5606   -2.3203    8.3848 H       1  UNL1        0.0000
     37 H           3.0969   -1.4175    8.6822 H       1  UNL1        0.0000
     38 H           4.8319    1.8178    7.6604 H       1  UNL1        0.0000
     39 H           4.5873    0.2633    6.9137 H       1  UNL1        0.0000
     40 H           6.2125    0.8309    7.2201 H       1  UNL1        0.0000
     41 H           7.3418   -0.1318   10.5889 H       1  UNL1        0.0000
     42 H           7.5762   -0.6069    8.9172 H       1  UNL1        0.0000
     43 H           6.9138   -1.7440   10.0573 H       1  UNL1        0.0000
@<TRIPOS>BOND
     1    39    16    1
     2    40    16    1
     3    16    38    1
     4    16     1    1
     5    33    14    1
     6    36    15    1
     7    37    15    1
     8    42    17    1
     9    34    14    1
    10    15     1    1
    11    15    35    1
    12    14    32    1
    13    14    12    1
    14     1    17    1
    15     1     2    1
    16    30    13    1
    17    28    12    1
    18    17    43    1
    19    17    41    1
    20    12    13    1
    21    12     8    1
    22    13    31    1
    23    13    29    1
    24     2     3    1
    25     8     3   ar
    26     8     7   ar
    27     3     4   ar
    28    25    11    1
    29    20     7    1
    30     7     6   ar
    31    21     9    1
    32    11    26    1
    33    11     9    1
    34    11    27    1
    35     4     9    1
    36     4     5   ar
    37     9    10    1
    38     6     5   ar
    39     6    19    1
    40     5    18    1
    41    10    23    1
    42    10    24    1
    43    10    22    1
