@<TRIPOS>MOLECULE
2
 43 43 0 0 0
SMALL
GASTEIGER

@<TRIPOS>ATOM
      1 SI         -0.9930    4.3274    8.8891 Si      1  UNL1        0.0000
      2 N          -0.3711    4.3701    7.2832 N.pl3   1  UNL1        0.0000
      3 C          -1.2620    4.2976    6.1893 C.ar    1  UNL1        0.0000
      4 C          -1.5409    3.0488    5.5988 C.ar    1  UNL1        0.0000
      5 C          -2.4634    2.9707    4.5663 C.ar    1  UNL1        0.0000
      6 C          -3.1119    4.0991    4.1018 C.ar    1  UNL1        0.0000
      7 C          -2.8049    5.3311    4.6461 C.ar    1  UNL1        0.0000
      8 C          -1.8825    5.4523    5.6753 C.ar    1  UNL1        0.0000
      9 C          -1.5169    6.8210    6.2013 C.3     1  UNL1        0.0000
     10 C          -2.7125    7.4886    6.8840 C.3     1  UNL1        0.0000
     11 C          -0.9846    7.6952    5.0598 C.3     1  UNL1        0.0000
     12 C          -0.8065    1.8053    6.0522 C.3     1  UNL1        0.0000
     13 C           0.1048    1.3162    4.9195 C.3     1  UNL1        0.0000
     14 C          -1.7822    0.7028    6.4718 C.3     1  UNL1        0.0000
     15 C          -2.8095    3.7277    8.9200 C.3     1  UNL1        0.0000
     16 C          -0.9596    6.0354    9.7815 C.3     1  UNL1        0.0000
     17 C           0.1233    3.0908    9.8437 C.3     1  UNL1        0.0000
     18 H          -2.6810    2.0141    4.1151 H       1  UNL1        0.0000
     19 H          -3.8363    4.0210    3.3055 H       1  UNL1        0.0000
     20 H          -3.2881    6.2157    4.2599 H       1  UNL1        0.0000
     21 H          -0.7146    6.6993    6.9441 H       1  UNL1        0.0000
     22 H          -2.4170    8.4468    7.3050 H       1  UNL1        0.0000
     23 H          -3.0926    6.8579    7.6838 H       1  UNL1        0.0000
     24 H          -3.5157    7.6599    6.1708 H       1  UNL1        0.0000
     25 H          -0.5510    8.6093    5.4592 H       1  UNL1        0.0000
     26 H          -1.7814    7.9639    4.3700 H       1  UNL1        0.0000
     27 H          -0.2136    7.1618    4.5016 H       1  UNL1        0.0000
     28 H          -0.1761    2.0711    6.9190 H       1  UNL1        0.0000
     29 H           0.5511    0.3583    5.1758 H       1  UNL1        0.0000
     30 H           0.8986    2.0464    4.7365 H       1  UNL1        0.0000
     31 H          -0.4649    1.1897    4.0011 H       1  UNL1        0.0000
     32 H          -1.2420   -0.1431    6.8897 H       1  UNL1        0.0000
     33 H          -2.3569    0.3502    5.6192 H       1  UNL1        0.0000
     34 H          -2.4773    1.0739    7.2204 H       1  UNL1        0.0000
     35 H          -3.2894    3.9757    9.8609 H       1  UNL1        0.0000
     36 H          -2.8808    2.6528    8.7913 H       1  UNL1        0.0000
     37 H          -3.3815    4.1885    8.1199 H       1  UNL1        0.0000
     38 H          -0.5814    5.9304   10.7932 H       1  UNL1        0.0000
     39 H          -1.9562    6.4585    9.8576 H       1  UNL1        0.0000
     40 H          -0.3366    6.7677    9.2750 H       1  UNL1        0.0000
     41 H           0.3554    3.4526   10.8388 H       1  UNL1        0.0000
     42 H           1.0662    2.9200    9.3254 H       1  UNL1        0.0000
     43 H          -0.3650    2.1288    9.9632 H       1  UNL1        0.0000
@<TRIPOS>BOND
     1    19     6    1
     2    31    13    1
     3     6     5   ar
     4     6     7   ar
     5    18     5    1
     6    20     7    1
     7    26    11    1
     8    27    11    1
     9     5     4   ar
    10     7     8   ar
    11    30    13    1
    12    13    29    1
    13    13    12    1
    14    11    25    1
    15    11     9    1
    16     4    12    1
    17     4     3   ar
    18    33    14    1
    19     8     3   ar
    20     8     9    1
    21    12    14    1
    22    12    28    1
    23    24    10    1
    24     3     2    1
    25     9    10    1
    26     9    21    1
    27    14    32    1
    28    14    34    1
    29    10    22    1
    30    10    23    1
    31     2     1    1
    32    37    15    1
    33    36    15    1
    34     1    15    1
    35     1    16    1
    36     1    17    1
    37    15    35    1
    38    40    16    1
    39    42    17    1
    40    16    39    1
    41    16    38    1
    42    17    43    1
    43    17    41    1
