@<TRIPOS>MOLECULE
2
 43 43 0 0 0
SMALL
GASTEIGER

@<TRIPOS>ATOM
      1 SI          4.1288    3.3850    5.4527 Si      1  UNL1        0.0000
      2 N           2.9112    3.3089    6.6886 N.pl3   1  UNL1        0.0000
      3 C           3.2486    2.8564    7.9756 C.ar    1  UNL1        0.0000
      4 C           3.6999    3.7620    8.9591 C.ar    1  UNL1        0.0000
      5 C           4.0453    3.3000   10.2195 C.ar    1  UNL1        0.0000
      6 C           3.9967    1.9539   10.5258 C.ar    1  UNL1        0.0000
      7 C           3.5825    1.0587    9.5598 C.ar    1  UNL1        0.0000
      8 C           3.2039    1.4848    8.2957 C.ar    1  UNL1        0.0000
      9 C           2.7486    0.4715    7.2744 C.3     1  UNL1        0.0000
     10 C           1.6332   -0.4156    7.8329 C.3     1  UNL1        0.0000
     11 C           3.9229   -0.3907    6.8041 C.3     1  UNL1        0.0000
     12 C           3.7571    5.2411    8.6600 C.3     1  UNL1        0.0000
     13 C           2.5077    5.9034    9.2536 C.3     1  UNL1        0.0000
     14 C           5.0303    5.9113    9.1793 C.3     1  UNL1        0.0000
     15 C           3.7298    2.2372    3.9646 C.3     1  UNL1        0.0000
     16 C           4.3072    5.1621    4.7376 C.3     1  UNL1        0.0000
     17 C           5.8417    2.9094    6.1753 C.3     1  UNL1        0.0000
     18 H           4.3722    4.0008   10.9719 H       1  UNL1        0.0000
     19 H           4.2841    1.6059   11.5063 H       1  UNL1        0.0000
     20 H           3.5580    0.0052    9.7934 H       1  UNL1        0.0000
     21 H           2.3607    1.0298    6.4168 H       1  UNL1        0.0000
     22 H           1.2277   -1.0494    7.0465 H       1  UNL1        0.0000
     23 H           0.8317    0.1929    8.2448 H       1  UNL1        0.0000
     24 H           2.0080   -1.0652    8.6201 H       1  UNL1        0.0000
     25 H           3.5892   -1.1046    6.0534 H       1  UNL1        0.0000
     26 H           4.3488   -0.9449    7.6377 H       1  UNL1        0.0000
     27 H           4.7015    0.2306    6.3706 H       1  UNL1        0.0000
     28 H           3.7332    5.3740    7.5685 H       1  UNL1        0.0000
     29 H           2.5126    6.9736    9.0515 H       1  UNL1        0.0000
     30 H           2.4751    5.7479   10.3311 H       1  UNL1        0.0000
     31 H           1.6117    5.4560    8.8013 H       1  UNL1        0.0000
     32 H           5.0952    6.9236    8.7869 H       1  UNL1        0.0000
     33 H           5.9091    5.3569    8.8589 H       1  UNL1        0.0000
     34 H           5.0357    5.9712   10.2646 H       1  UNL1        0.0000
     35 H           4.5587    2.2515    3.2641 H       1  UNL1        0.0000
     36 H           2.8517    2.5846    3.4270 H       1  UNL1        0.0000
     37 H           3.5656    1.2031    4.2500 H       1  UNL1        0.0000
     38 H           5.0793    5.1663    3.9730 H       1  UNL1        0.0000
     39 H           4.5942    5.9034    5.4821 H       1  UNL1        0.0000
     40 H           3.3883    5.5014    4.2592 H       1  UNL1        0.0000
     41 H           6.4217    3.7907    6.4283 H       1  UNL1        0.0000
     42 H           6.4230    2.3299    5.4672 H       1  UNL1        0.0000
     43 H           5.7351    2.3213    7.0807 H       1  UNL1        0.0000
@<TRIPOS>BOND
     1    35    15    1
     2    36    15    1
     3    15    37    1
     4    15     1    1
     5    38    16    1
     6    40    16    1
     7    16     1    1
     8    16    39    1
     9     1    17    1
    10     1     2    1
    11    42    17    1
    12    25    11    1
    13    17    41    1
    14    17    43    1
    15    27    11    1
    16    21     9    1
    17     2     3    1
    18    11     9    1
    19    11    26    1
    20    22    10    1
    21     9    10    1
    22     9     8    1
    23    28    12    1
    24    10    23    1
    25    10    24    1
    26     3     8   ar
    27     3     4   ar
    28     8     7   ar
    29    12     4    1
    30    12    14    1
    31    12    13    1
    32    32    14    1
    33    31    13    1
    34    33    14    1
    35     4     5   ar
    36    29    13    1
    37    14    34    1
    38    13    30    1
    39     7    20    1
    40     7     6   ar
    41     5     6   ar
    42     5    18    1
    43     6    19    1
