@<TRIPOS>MOLECULE
2
 43 43 0 0 0
SMALL
GASTEIGER

@<TRIPOS>ATOM
      1 SI         13.4036   -0.3739   -1.2976 Si      1  UNL1        0.0000
      2 N          12.5470   -0.3478    0.1831 N.pl3   1  UNL1        0.0000
      3 C          11.1774   -0.6060    0.3082 C.ar    1  UNL1        0.0000
      4 C          10.1777    0.2693   -0.1791 C.ar    1  UNL1        0.0000
      5 C           8.8385   -0.0680   -0.0158 C.ar    1  UNL1        0.0000
      6 C           8.4563   -1.2341    0.6180 C.ar    1  UNL1        0.0000
      7 C           9.4294   -2.0937    1.0990 C.ar    1  UNL1        0.0000
      8 C          10.7746   -1.8021    0.9582 C.ar    1  UNL1        0.0000
      9 C          10.5261    1.5360   -0.9318 C.3     1  UNL1        0.0000
     10 C          10.0875    1.4235   -2.3951 C.3     1  UNL1        0.0000
     11 C           9.9019    2.7809   -0.2951 C.3     1  UNL1        0.0000
     12 C          11.8381   -2.7725    1.4286 C.3     1  UNL1        0.0000
     13 C          11.4777   -3.4717    2.7406 C.3     1  UNL1        0.0000
     14 C          12.0921   -3.8059    0.3257 C.3     1  UNL1        0.0000
     15 C          12.4642   -1.4107   -2.6196 C.3     1  UNL1        0.0000
     16 C          13.8137    1.3376   -2.0922 C.3     1  UNL1        0.0000
     17 C          15.0993   -1.2291   -1.0399 C.3     1  UNL1        0.0000
     18 H           8.0752    0.5891   -0.4095 H       1  UNL1        0.0000
     19 H           7.4100   -1.4784    0.7266 H       1  UNL1        0.0000
     20 H           9.1270   -3.0122    1.5777 H       1  UNL1        0.0000
     21 H          11.6091    1.6644   -0.8989 H       1  UNL1        0.0000
     22 H          10.5231    0.5432   -2.8567 H       1  UNL1        0.0000
     23 H          10.4066    2.3023   -2.9521 H       1  UNL1        0.0000
     24 H           9.0044    1.3482   -2.4682 H       1  UNL1        0.0000
     25 H           8.8173    2.7050   -0.2395 H       1  UNL1        0.0000
     26 H          10.1502    3.6581   -0.8898 H       1  UNL1        0.0000
     27 H          10.3075    2.9203    0.7022 H       1  UNL1        0.0000
     28 H          12.7605   -2.1891    1.5914 H       1  UNL1        0.0000
     29 H          11.2016   -2.7399    3.4939 H       1  UNL1        0.0000
     30 H          12.3348   -4.0300    3.1113 H       1  UNL1        0.0000
     31 H          10.6568   -4.1727    2.6060 H       1  UNL1        0.0000
     32 H          11.1765   -4.3533    0.1078 H       1  UNL1        0.0000
     33 H          12.8539   -4.5178    0.6355 H       1  UNL1        0.0000
     34 H          12.4241   -3.3106   -0.5815 H       1  UNL1        0.0000
     35 H          11.4465   -1.6221   -2.3040 H       1  UNL1        0.0000
     36 H          12.9570   -2.3620   -2.7932 H       1  UNL1        0.0000
     37 H          12.4188   -0.8991   -3.5757 H       1  UNL1        0.0000
     38 H          13.1064    1.6156   -2.8681 H       1  UNL1        0.0000
     39 H          14.7988    1.3172   -2.5486 H       1  UNL1        0.0000
     40 H          13.8176    2.1344   -1.3524 H       1  UNL1        0.0000
     41 H          15.7295   -0.6817   -0.3478 H       1  UNL1        0.0000
     42 H          15.6252   -1.2823   -1.9880 H       1  UNL1        0.0000
     43 H          14.9919   -2.2438   -0.6717 H       1  UNL1        0.0000
@<TRIPOS>BOND
     1    37    15    1
     2    23    10    1
     3    38    16    1
     4    22    10    1
     5    36    15    1
     6    15    35    1
     7    15     1    1
     8    39    16    1
     9    24    10    1
    10    10     9    1
    11    16    40    1
    12    16     1    1
    13    42    17    1
    14     1    17    1
    15     1     2    1
    16    17    43    1
    17    17    41    1
    18     9    21    1
    19     9    11    1
    20     9     4    1
    21    26    11    1
    22    34    14    1
    23    18     5    1
    24    11    25    1
    25    11    27    1
    26     4     5   ar
    27     4     3   ar
    28     5     6   ar
    29    32    14    1
    30     2     3    1
    31     3     8   ar
    32    14    33    1
    33    14    12    1
    34     6    19    1
    35     6     7   ar
    36     8     7   ar
    37     8    12    1
    38     7    20    1
    39    12    28    1
    40    12    13    1
    41    31    13    1
    42    13    30    1
    43    13    29    1
