@<TRIPOS>MOLECULE
2
 43 43 0 0 0
SMALL
GASTEIGER

@<TRIPOS>ATOM
      1 SI         15.4841    1.9202    2.8629 Si      1  UNL1        0.0000
      2 N          14.4395    0.5685    2.9783 N.pl3   1  UNL1        0.0000
      3 C          14.4413   -0.3611    4.0239 C.ar    1  UNL1        0.0000
      4 C          15.0398   -1.6235    3.8251 C.ar    1  UNL1        0.0000
      5 C          15.1227   -2.5197    4.8780 C.ar    1  UNL1        0.0000
      6 C          14.6095   -2.2073    6.1233 C.ar    1  UNL1        0.0000
      7 C          13.9766   -0.9939    6.3100 C.ar    1  UNL1        0.0000
      8 C          13.8735   -0.0712    5.2801 C.ar    1  UNL1        0.0000
      9 C          15.6002   -1.9623    2.4625 C.3     1  UNL1        0.0000
     10 C          17.0726   -1.5487    2.3764 C.3     1  UNL1        0.0000
     11 C          15.4754   -3.4477    2.1183 C.3     1  UNL1        0.0000
     12 C          13.1549    1.2399    5.5083 C.3     1  UNL1        0.0000
     13 C          11.7601    1.0152    6.1011 C.3     1  UNL1        0.0000
     14 C          13.9788    2.1396    6.4345 C.3     1  UNL1        0.0000
     15 C          14.7310    3.6630    3.2267 C.3     1  UNL1        0.0000
     16 C          16.0054    1.9646    1.0180 C.3     1  UNL1        0.0000
     17 C          17.0070    1.7697    4.0259 C.3     1  UNL1        0.0000
     18 H          15.6025   -3.4754    4.7329 H       1  UNL1        0.0000
     19 H          14.6947   -2.9091    6.9398 H       1  UNL1        0.0000
     20 H          13.5632   -0.7613    7.2805 H       1  UNL1        0.0000
     21 H          15.0252   -1.3693    1.7300 H       1  UNL1        0.0000
     22 H          17.1762   -0.4832    2.5493 H       1  UNL1        0.0000
     23 H          17.4742   -1.7884    1.3937 H       1  UNL1        0.0000
     24 H          17.6549   -2.0802    3.1274 H       1  UNL1        0.0000
     25 H          16.2058   -4.0374    2.6687 H       1  UNL1        0.0000
     26 H          15.6621   -3.5991    1.0574 H       1  UNL1        0.0000
     27 H          14.4827   -3.8192    2.3532 H       1  UNL1        0.0000
     28 H          13.0400    1.7247    4.5213 H       1  UNL1        0.0000
     29 H          11.1961    0.3327    5.4716 H       1  UNL1        0.0000
     30 H          11.2242    1.9604    6.1798 H       1  UNL1        0.0000
     31 H          11.8245    0.5870    7.0985 H       1  UNL1        0.0000
     32 H          14.0772    1.6753    7.4136 H       1  UNL1        0.0000
     33 H          13.4978    3.1084    6.5649 H       1  UNL1        0.0000
     34 H          14.9752    2.2917    6.0301 H       1  UNL1        0.0000
     35 H          13.8929    3.8571    2.5656 H       1  UNL1        0.0000
     36 H          15.4739    4.4321    3.0346 H       1  UNL1        0.0000
     37 H          14.3929    3.7950    4.2494 H       1  UNL1        0.0000
     38 H          15.1625    1.6356    0.4117 H       1  UNL1        0.0000
     39 H          16.8511    1.3198    0.7994 H       1  UNL1        0.0000
     40 H          16.2753    2.9682    0.7075 H       1  UNL1        0.0000
     41 H          16.8978    0.9199    4.6925 H       1  UNL1        0.0000
     42 H          17.1317    2.6573    4.6371 H       1  UNL1        0.0000
     43 H          17.9271    1.6357    3.4677 H       1  UNL1        0.0000
@<TRIPOS>BOND
     1    38    16    1
     2    40    16    1
     3    39    16    1
     4    16     1    1
     5    26    11    1
     6    23    10    1
     7    21     9    1
     8    11    27    1
     9    11     9    1
    10    11    25    1
    11    10     9    1
    12    10    22    1
    13    10    24    1
    14     9     4    1
    15    35    15    1
    16     1     2    1
    17     1    15    1
    18     1    17    1
    19     2     3    1
    20    36    15    1
    21    15    37    1
    22    43    17    1
    23     4     3   ar
    24     4     5   ar
    25     3     8   ar
    26    17    42    1
    27    17    41    1
    28    28    12    1
    29    18     5    1
    30     5     6   ar
    31     8    12    1
    32     8     7   ar
    33    29    13    1
    34    12    13    1
    35    12    14    1
    36    34    14    1
    37    13    30    1
    38    13    31    1
    39     6     7   ar
    40     6    19    1
    41     7    20    1
    42    14    33    1
    43    14    32    1
