@<TRIPOS>MOLECULE
1
 13 13 0 0 0
SMALL
GASTEIGER

@<TRIPOS>ATOM
      1 N           7.3914    7.8628    1.6161 N.3     1  UNL1       -0.2403
      2 C           7.8872    8.9454    0.7881 C.3     1  UNL1        0.0140
      3 C           7.4964    8.5547   -0.6581 C.3     1  UNL1       -0.0377
      4 C           7.4776    7.0186   -0.6141 C.3     1  UNL1       -0.0377
      5 C           7.8243    6.7017    0.8630 C.3     1  UNL1        0.0140
      6 H           7.4789    9.9141    1.0832 H       1  UNL1        0.0441
      7 H           8.9953    9.0043    0.8322 H       1  UNL1        0.0441
      8 H           8.2083    8.9417   -1.3854 H       1  UNL1        0.0278
      9 H           6.5097    8.9494   -0.9002 H       1  UNL1        0.0278
     10 H           6.4906    6.6330   -0.8666 H       1  UNL1        0.0278
     11 H           8.2025    6.5759   -1.2960 H       1  UNL1        0.0278
     12 H           8.9241    6.5718    0.9244 H       1  UNL1        0.0441
     13 H           7.3462    5.7810    1.2124 H       1  UNL1        0.0441
@<TRIPOS>BOND
     1     8     3    1
     2    11     4    1
     3     9     3    1
     4    10     4    1
     5     3     4    1
     6     3     2    1
     7     4     5    1
     8     2     7    1
     9     2     6    1
    10     2     1    1
    11     5    12    1
    12     5    13    1
    13     5     1    1
