@<TRIPOS>MOLECULE
1
 9 8 0 0 0
SMALL
GASTEIGER

@<TRIPOS>ATOM
      1 N          -2.6119    7.6078    2.0361 N.3     1  UNL1       -0.2469
      2 C          -2.7628    6.3483    2.7406 C.3     1  UNL1        0.0021
      3 H          -2.5542    5.4844    2.0811 H       1  UNL1        0.0405
      4 H          -3.7961    6.2222    3.1089 H       1  UNL1        0.0405
      5 H          -2.0809    6.3117    3.5977 H       1  UNL1        0.0405
      6 C          -3.6071    7.6915    0.9883 C.3     1  UNL1        0.0021
      7 H          -3.4188    6.9535    0.1838 H       1  UNL1        0.0405
      8 H          -3.6292    8.6905    0.5441 H       1  UNL1        0.0405
      9 H          -4.6148    7.4801    1.3867 H       1  UNL1        0.0405
@<TRIPOS>BOND
     1     7     6    1
     2     8     6    1
     3     6     9    1
     4     6     1    1
     5     1     2    1
     6     3     2    1
     7     2     4    1
     8     2     5    1
