@<TRIPOS>MOLECULE
1
 9 8 0 0 0
SMALL
GASTEIGER

@<TRIPOS>ATOM
      1 N           0.2737    7.6071    3.0814 N.3     1  UNL1       -0.2469
      2 C           0.4241    6.3478    2.3765 C.3     1  UNL1        0.0021
      3 C           1.2689    7.6902    4.1292 C.3     1  UNL1        0.0021
      4 H           0.2153    5.4838    3.0358 H       1  UNL1        0.0405
      5 H           1.4574    6.2214    2.0082 H       1  UNL1        0.0405
      6 H          -0.2577    6.3117    1.5195 H       1  UNL1        0.0405
      7 H           1.0805    6.9521    4.9335 H       1  UNL1        0.0405
      8 H           1.2914    8.6891    4.5736 H       1  UNL1        0.0405
      9 H           2.2766    7.4786    3.7306 H       1  UNL1        0.0405
@<TRIPOS>BOND
     1     6     2    1
     2     5     2    1
     3     2     4    1
     4     2     1    1
     5     1     3    1
     6     9     3    1
     7     3     8    1
     8     3     7    1
