@<TRIPOS>MOLECULE
1
 13 13 0 0 0
SMALL
GASTEIGER

@<TRIPOS>ATOM
      1 N           6.3099    9.7912    3.7847 N.3     1  UNL1       -0.2403
      2 C           6.0058   10.4785    5.0248 C.3     1  UNL1        0.0140
      3 C           5.8616   11.9728    4.6395 C.3     1  UNL1       -0.0377
      4 C           5.4336   11.9151    3.1646 C.3     1  UNL1       -0.0377
      5 C           5.3532   10.3956    2.8777 C.3     1  UNL1        0.0140
      6 H           5.0307   10.1478    5.4364 H       1  UNL1        0.0441
      7 H           6.7761   10.3183    5.7858 H       1  UNL1        0.0441
      8 H           6.8142   12.4896    4.7491 H       1  UNL1        0.0278
      9 H           5.1255   12.4755    5.2654 H       1  UNL1        0.0278
     10 H           4.4786   12.4079    2.9891 H       1  UNL1        0.0278
     11 H           6.1823   12.3800    2.5233 H       1  UNL1        0.0278
     12 H           5.5636   10.1567    1.8333 H       1  UNL1        0.0441
     13 H           4.3199   10.0633    3.1115 H       1  UNL1        0.0441
@<TRIPOS>BOND
     1    12     5    1
     2    11     4    1
     3     5    13    1
     4     5     4    1
     5     5     1    1
     6    10     4    1
     7     4     3    1
     8     1     2    1
     9     3     8    1
    10     3     2    1
    11     3     9    1
    12     2     6    1
    13     2     7    1
