@<TRIPOS>MOLECULE
3
 21 20 0 0 0
SMALL
GASTEIGER

@<TRIPOS>ATOM
      1 SI          4.0106    6.2579   10.1720 Si      1  UNL1        0.0000
      2 SI          1.2346    5.1444   10.6015 Si      1  UNL1        0.0000
      3 N           2.6734    5.2974    9.6692 N.3     1  UNL1        0.0000
      4 C           3.7250    8.1145    9.7895 C.3     1  UNL1        0.0000
      5 C           4.5013    6.1360   12.0104 C.3     1  UNL1        0.0000
      6 C           1.3924    3.8201   11.9673 C.3     1  UNL1        0.0000
      7 C           0.6287    6.7520   11.4358 C.3     1  UNL1        0.0000
      8 H           5.2148    5.8489    9.3755 H       1  UNL1        0.0000
      9 H           0.1475    4.7709    9.6344 H       1  UNL1        0.0000
     10 H           4.6075    8.7006   10.0240 H       1  UNL1        0.0000
     11 H           2.9028    8.5130   10.3731 H       1  UNL1        0.0000
     12 H           3.4916    8.2777    8.7418 H       1  UNL1        0.0000
     13 H           5.3856    6.7272   12.2260 H       1  UNL1        0.0000
     14 H           3.7059    6.4866   12.6597 H       1  UNL1        0.0000
     15 H           4.7188    5.1073   12.2783 H       1  UNL1        0.0000
     16 H           0.4240    3.5116   12.3476 H       1  UNL1        0.0000
     17 H           1.9744    4.1847   12.8089 H       1  UNL1        0.0000
     18 H           1.8915    2.9370   11.5742 H       1  UNL1        0.0000
     19 H          -0.3152    6.5935   11.9472 H       1  UNL1        0.0000
     20 H           1.3425    7.1124   12.1680 H       1  UNL1        0.0000
     21 H           0.4787    7.5434   10.7088 H       1  UNL1        0.0000
@<TRIPOS>BOND
     1    12     4    1
     2     8     1    1
     3     9     2    1
     4     3     1    1
     5     3     2    1
     6     4    10    1
     7     4     1    1
     8     4    11    1
     9     1     5    1
    10     2     7    1
    11     2     6    1
    12    21     7    1
    13     7    19    1
    14     7    20    1
    15    18     6    1
    16     6    16    1
    17     6    17    1
    18     5    13    1
    19     5    15    1
    20     5    14    1
