@<TRIPOS>MOLECULE
3
 21 20 0 0 0
SMALL
GASTEIGER

@<TRIPOS>ATOM
      1 SI          5.5829    2.2153    9.7665 Si      1  UNL1        0.0000
      2 SI          5.3057    1.6226    6.7840 Si      1  UNL1        0.0000
      3 N           5.0066    2.5860    8.1826 N.3     1  UNL1        0.0000
      4 C           7.3475    2.9076   10.0280 C.3     1  UNL1        0.0000
      5 C           5.6092    0.3606   10.2249 C.3     1  UNL1        0.0000
      6 C           4.1785    0.0992    6.6047 C.3     1  UNL1        0.0000
      7 C           7.1234    1.0566    6.6284 C.3     1  UNL1        0.0000
      8 H           4.6794    2.9028   10.7633 H       1  UNL1        0.0000
      9 H           5.0360    2.5124    5.5993 H       1  UNL1        0.0000
     10 H           7.7087    2.6894   11.0274 H       1  UNL1        0.0000
     11 H           7.3615    3.9854    9.9009 H       1  UNL1        0.0000
     12 H           8.0517    2.4809    9.3217 H       1  UNL1        0.0000
     13 H           5.8985    0.2083   11.2600 H       1  UNL1        0.0000
     14 H           6.3088   -0.1899    9.6047 H       1  UNL1        0.0000
     15 H           4.6269   -0.0810   10.0862 H       1  UNL1        0.0000
     16 H           4.2946   -0.3793    5.6372 H       1  UNL1        0.0000
     17 H           4.3827   -0.6455    7.3679 H       1  UNL1        0.0000
     18 H           3.1428    0.4112    6.7068 H       1  UNL1        0.0000
     19 H           7.2952    0.5558    5.6816 H       1  UNL1        0.0000
     20 H           7.3939    0.3655    7.4190 H       1  UNL1        0.0000
     21 H           7.8041    1.8992    6.6844 H       1  UNL1        0.0000
@<TRIPOS>BOND
     1     9     2    1
     2    16     6    1
     3    19     7    1
     4     6    18    1
     5     6     2    1
     6     6    17    1
     7     7    21    1
     8     7     2    1
     9     7    20    1
    10     2     3    1
    11     3     1    1
    12    12     4    1
    13    14     5    1
    14     1     4    1
    15     1     5    1
    16     1     8    1
    17    11     4    1
    18     4    10    1
    19    15     5    1
    20     5    13    1
