@<TRIPOS>MOLECULE
3
 21 20 0 0 0
SMALL
GASTEIGER

@<TRIPOS>ATOM
      1 SI          1.0681    1.0230    9.0296 Si      1  UNL1        0.0000
      2 SI          0.5583    2.3776    6.3607 Si      1  UNL1        0.0000
      3 N           1.4828    2.1431    7.7860 N.3     1  UNL1        0.0000
      4 C           0.9513   -0.8121    8.5084 C.3     1  UNL1        0.0000
      5 C          -0.6024    1.4022    9.8780 C.3     1  UNL1        0.0000
      6 C          -1.0188    3.4332    6.6438 C.3     1  UNL1        0.0000
      7 C          -0.0079    0.8147    5.4285 C.3     1  UNL1        0.0000
      8 H           2.1766    1.1064   10.0443 H       1  UNL1        0.0000
      9 H           1.4608    3.1503    5.4153 H       1  UNL1        0.0000
     10 H           0.8110   -1.4460    9.3790 H       1  UNL1        0.0000
     11 H           1.8499   -1.1454    8.0020 H       1  UNL1        0.0000
     12 H           0.1154   -0.9875    7.8399 H       1  UNL1        0.0000
     13 H          -0.7187    0.8297   10.7927 H       1  UNL1        0.0000
     14 H          -0.6837    2.4537   10.1313 H       1  UNL1        0.0000
     15 H          -1.4359    1.1527    9.2283 H       1  UNL1        0.0000
     16 H          -1.3521    3.9227    5.7335 H       1  UNL1        0.0000
     17 H          -0.8470    4.1988    7.3956 H       1  UNL1        0.0000
     18 H          -1.8387    2.8152    6.9952 H       1  UNL1        0.0000
     19 H          -0.3878    1.0654    4.4429 H       1  UNL1        0.0000
     20 H          -0.7991    0.2974    5.9614 H       1  UNL1        0.0000
     21 H           0.8129    0.1180    5.2984 H       1  UNL1        0.0000
@<TRIPOS>BOND
     1    19     7    1
     2    21     7    1
     3     9     2    1
     4     7    20    1
     5     7     2    1
     6    16     6    1
     7     2     6    1
     8     2     3    1
     9     6    18    1
    10     6    17    1
    11     3     1    1
    12    12     4    1
    13    11     4    1
    14     4     1    1
    15     4    10    1
    16     1     5    1
    17     1     8    1
    18    15     5    1
    19     5    14    1
    20     5    13    1
