@<TRIPOS>MOLECULE
3
 21 20 0 0 0
SMALL
GASTEIGER

@<TRIPOS>ATOM
      1 SI          0.9475   -0.9091   15.2106 Si      1  UNL1        0.0000
      2 SI         -0.1346    0.9874   13.1832 Si      1  UNL1        0.0000
      3 N           1.1499   -0.0075   13.7591 N.3     1  UNL1        0.0000
      4 C          -0.0994   -2.4996   15.0224 C.3     1  UNL1        0.0000
      5 C           0.1522    0.0159   16.6842 C.3     1  UNL1        0.0000
      6 C          -0.2550    2.6916   14.0364 C.3     1  UNL1        0.0000
      7 C          -1.8905    0.2389   13.3286 C.3     1  UNL1        0.0000
      8 H           2.3003   -1.3349   15.6976 H       1  UNL1        0.0000
      9 H          -0.1423   -3.0434   15.9608 H       1  UNL1        0.0000
     10 H          -1.1188   -2.2696   14.7320 H       1  UNL1        0.0000
     11 H           0.3108   -3.1706   14.2754 H       1  UNL1        0.0000
     12 H           0.1370   -0.6059   17.5740 H       1  UNL1        0.0000
     13 H           0.6859    0.9277   16.9320 H       1  UNL1        0.0000
     14 H          -0.8736    0.2906   16.4626 H       1  UNL1        0.0000
     15 H           0.0643    1.2143   11.7175 H       1  UNL1        0.0000
     16 H          -1.1063    3.2514   13.6631 H       1  UNL1        0.0000
     17 H          -0.3711    2.5979   15.1117 H       1  UNL1        0.0000
     18 H           0.6338    3.2813   13.8441 H       1  UNL1        0.0000
     19 H          -2.6248    0.8714   12.8393 H       1  UNL1        0.0000
     20 H          -2.1909    0.1368   14.3659 H       1  UNL1        0.0000
     21 H          -1.9512   -0.7448   12.8745 H       1  UNL1        0.0000
@<TRIPOS>BOND
     1    15     2    1
     2    19     7    1
     3    21     7    1
     4     2     7    1
     5     2     3    1
     6     2     6    1
     7     7    20    1
     8    16     6    1
     9     3     1    1
    10    18     6    1
    11     6    17    1
    12    11     4    1
    13    10     4    1
    14     4     1    1
    15     4     9    1
    16     1     8    1
    17     1     5    1
    18    14     5    1
    19     5    13    1
    20     5    12    1
