@<TRIPOS>MOLECULE
3
 21 20 0 0 0
SMALL
GASTEIGER

@<TRIPOS>ATOM
      1 SI          5.8808    2.3984   12.5491 Si      1  UNL1        0.0000
      2 SI          3.2125    3.5789   11.8148 Si      1  UNL1        0.0000
      3 N           4.1924    2.2388   12.2592 N.3     1  UNL1        0.0000
      4 C           6.3805    3.4699   14.0633 C.3     1  UNL1        0.0000
      5 C           6.9072    3.1284   11.1137 C.3     1  UNL1        0.0000
      6 C           2.9376    4.9395   13.1386 C.3     1  UNL1        0.0000
      7 C           3.8240    4.5976   10.3073 C.3     1  UNL1        0.0000
      8 H           6.4415    1.0397   12.8299 H       1  UNL1        0.0000
      9 H           7.4591    3.5861   14.1070 H       1  UNL1        0.0000
     10 H           6.0672    3.0320   15.0060 H       1  UNL1        0.0000
     11 H           5.9524    4.4652   14.0045 H       1  UNL1        0.0000
     12 H           7.9695    2.9975   11.2943 H       1  UNL1        0.0000
     13 H           6.7246    4.1900   10.9879 H       1  UNL1        0.0000
     14 H           6.6742    2.6389   10.1742 H       1  UNL1        0.0000
     15 H           1.8756    3.0222   11.4486 H       1  UNL1        0.0000
     16 H           2.3371    5.7458   12.7277 H       1  UNL1        0.0000
     17 H           3.8775    5.3733   13.4674 H       1  UNL1        0.0000
     18 H           2.4211    4.5712   14.0195 H       1  UNL1        0.0000
     19 H           2.9958    5.0910    9.8066 H       1  UNL1        0.0000
     20 H           4.5167    5.3729   10.6190 H       1  UNL1        0.0000
     21 H           4.3352    3.9836    9.5737 H       1  UNL1        0.0000
@<TRIPOS>BOND
     1    21     7    1
     2    19     7    1
     3    14     5    1
     4     7    20    1
     5     7     2    1
     6    13     5    1
     7     5    12    1
     8     5     1    1
     9    15     2    1
    10     2     3    1
    11     2     6    1
    12     3     1    1
    13     1     8    1
    14     1     4    1
    15    16     6    1
    16     6    17    1
    17     6    18    1
    18    11     4    1
    19     4     9    1
    20     4    10    1
