@<TRIPOS>MOLECULE
3
 21 20 0 0 0
SMALL
GASTEIGER

@<TRIPOS>ATOM
      1 SI          5.8010   -1.1120   10.3808 Si      1  UNL1        0.0000
      2 SI          4.0863   -3.2200   11.5618 Si      1  UNL1        0.0000
      3 N           4.6026   -1.5913   11.5214 N.3     1  UNL1        0.0000
      4 C           5.5444   -1.8972    8.6544 C.3     1  UNL1        0.0000
      5 C           7.5841   -1.5437   10.9156 C.3     1  UNL1        0.0000
      6 C           3.0922   -3.4651   13.1717 C.3     1  UNL1        0.0000
      7 C           5.4514   -4.5565   11.5587 C.3     1  UNL1        0.0000
      8 H           5.7524    0.3579   10.1924 H       1  UNL1        0.0000
      9 H           6.1538   -1.4170    7.8953 H       1  UNL1        0.0000
     10 H           5.8075   -2.9490    8.6676 H       1  UNL1        0.0000
     11 H           4.5065   -1.8325    8.3427 H       1  UNL1        0.0000
     12 H           8.2862   -1.3452   10.1124 H       1  UNL1        0.0000
     13 H           7.8845   -0.9412   11.7664 H       1  UNL1        0.0000
     14 H           7.6855   -2.5877   11.1921 H       1  UNL1        0.0000
     15 H           3.1978   -3.6164   10.4194 H       1  UNL1        0.0000
     16 H           2.3110   -4.2067   13.0440 H       1  UNL1        0.0000
     17 H           2.6271   -2.5290   13.4817 H       1  UNL1        0.0000
     18 H           3.7201   -3.8112   13.9857 H       1  UNL1        0.0000
     19 H           5.0302   -5.5515   11.6632 H       1  UNL1        0.0000
     20 H           6.1600   -4.4142   12.3692 H       1  UNL1        0.0000
     21 H           6.0093   -4.5333   10.6296 H       1  UNL1        0.0000
@<TRIPOS>BOND
     1     9     4    1
     2    11     4    1
     3     4    10    1
     4     4     1    1
     5    12     5    1
     6     8     1    1
     7     1     5    1
     8     1     3    1
     9    15     2    1
    10    21     7    1
    11     5    14    1
    12     5    13    1
    13     3     2    1
    14     7     2    1
    15     7    19    1
    16     7    20    1
    17     2     6    1
    18    16     6    1
    19     6    17    1
    20     6    18    1
