@<TRIPOS>MOLECULE
3
 27 26 0 0 0
SMALL
GASTEIGER

@<TRIPOS>ATOM
      1 SI          4.7821   12.1209    5.4167 Si      1  UNL1        0.0000
      2 SI          5.7836   12.7406    2.6684 Si      1  UNL1        0.0000
      3 N           6.0980   12.4208    4.3380 N.3     1  UNL1        0.0000
      4 C           7.3733   12.6215    1.6127 C.3     1  UNL1        0.0000
      5 H           8.1615   13.2648    1.9939 H       1  UNL1        0.0000
      6 H           7.1694   12.9326    0.5923 H       1  UNL1        0.0000
      7 H           7.7606   11.6091    1.5699 H       1  UNL1        0.0000
      8 C           5.0963   14.5100    2.3430 C.3     1  UNL1        0.0000
      9 H           4.5426   14.8831    3.1964 H       1  UNL1        0.0000
     10 H           4.4189   14.5032    1.4951 H       1  UNL1        0.0000
     11 H           5.8854   15.2215    2.1170 H       1  UNL1        0.0000
     12 C           4.5020   11.5415    1.9008 C.3     1  UNL1        0.0000
     13 H           4.7035   10.5114    2.1731 H       1  UNL1        0.0000
     14 H           4.4981   11.6040    0.8173 H       1  UNL1        0.0000
     15 H           3.5022   11.7775    2.2475 H       1  UNL1        0.0000
     16 C           3.2298   13.2058    5.1361 C.3     1  UNL1        0.0000
     17 H           3.4385   14.2646    5.2512 H       1  UNL1        0.0000
     18 H           2.4488   12.9497    5.8446 H       1  UNL1        0.0000
     19 H           2.8316   13.0587    4.1398 H       1  UNL1        0.0000
     20 C           4.1719   10.3030    5.4409 C.3     1  UNL1        0.0000
     21 H           3.8287    9.9845    4.4628 H       1  UNL1        0.0000
     22 H           3.3441   10.1788    6.1330 H       1  UNL1        0.0000
     23 H           4.9673    9.6329    5.7525 H       1  UNL1        0.0000
     24 C           5.3560   12.4949    7.2095 C.3     1  UNL1        0.0000
     25 H           6.4459   12.5155    7.2612 H       1  UNL1        0.0000
     26 H           5.0072   11.7294    7.8951 H       1  UNL1        0.0000
     27 H           4.9791   13.4465    7.5708 H       1  UNL1        0.0000
@<TRIPOS>BOND
     1     6     4    1
     2    14    12    1
     3    10     8    1
     4     7     4    1
     5     4     5    1
     6     4     2    1
     7    12    13    1
     8    12    15    1
     9    12     2    1
    10    11     8    1
    11     8     2    1
    12     8     9    1
    13     2     3    1
    14    19    16    1
    15     3     1    1
    16    21    20    1
    17    16    17    1
    18    16     1    1
    19    16    18    1
    20     1    20    1
    21     1    24    1
    22    20    23    1
    23    20    22    1
    24    24    25    1
    25    24    27    1
    26    24    26    1
