@<TRIPOS>MOLECULE
2
 43 43 0 0 0
SMALL
GASTEIGER

@<TRIPOS>ATOM
      1 SI          1.6654   12.9333   17.8507 Si      1  UNL1        0.0000
      2 N           2.4165   13.0855   19.3882 N.pl3   1  UNL1        0.0000
      3 C           3.4764   12.2226   19.7069 C.ar    1  UNL1        0.0000
      4 C           4.8086   12.5555   19.3830 C.ar    1  UNL1        0.0000
      5 C           5.8333   11.6657   19.6638 C.ar    1  UNL1        0.0000
      6 C           5.5857   10.4505   20.2710 C.ar    1  UNL1        0.0000
      7 C           4.2856   10.1164   20.5958 C.ar    1  UNL1        0.0000
      8 C           3.2320   10.9693   20.3089 C.ar    1  UNL1        0.0000
      9 C           1.8243   10.5629   20.6745 C.3     1  UNL1        0.0000
     10 C           1.6633   10.6216   22.1984 C.3     1  UNL1        0.0000
     11 C           1.4639    9.1768   20.1350 C.3     1  UNL1        0.0000
     12 C           5.1305   13.8792   18.7330 C.3     1  UNL1        0.0000
     13 C           5.5606   13.6815   17.2776 C.3     1  UNL1        0.0000
     14 C           6.2192   14.6249   19.5086 C.3     1  UNL1        0.0000
     15 C          -0.2002   12.4804   18.0358 C.3     1  UNL1        0.0000
     16 C           1.7305   14.5788   16.8589 C.3     1  UNL1        0.0000
     17 C           2.4463   11.5524   16.7692 C.3     1  UNL1        0.0000
     18 H           6.8475   11.9226   19.3968 H       1  UNL1        0.0000
     19 H           6.3960    9.7696   20.4842 H       1  UNL1        0.0000
     20 H           4.0876    9.1656   21.0683 H       1  UNL1        0.0000
     21 H           1.1370   11.2927   20.2214 H       1  UNL1        0.0000
     22 H           2.3879    9.9671   22.6802 H       1  UNL1        0.0000
     23 H           0.6655   10.2974   22.4911 H       1  UNL1        0.0000
     24 H           1.8287   11.6482   22.5458 H       1  UNL1        0.0000
     25 H           1.6618    9.1250   19.0669 H       1  UNL1        0.0000
     26 H           0.4077    8.9738   20.3023 H       1  UNL1        0.0000
     27 H           2.0383    8.3966   20.6283 H       1  UNL1        0.0000
     28 H           4.2126   14.4763   18.7442 H       1  UNL1        0.0000
     29 H           6.4620   13.0746   17.2234 H       1  UNL1        0.0000
     30 H           5.7664   14.6431   16.8104 H       1  UNL1        0.0000
     31 H           4.7762   13.1826   16.7161 H       1  UNL1        0.0000
     32 H           5.9501   14.7063   20.5592 H       1  UNL1        0.0000
     33 H           6.3582   15.6241   19.0997 H       1  UNL1        0.0000
     34 H           7.1722   14.1059   19.4399 H       1  UNL1        0.0000
     35 H          -0.3454   11.4169   18.2070 H       1  UNL1        0.0000
     36 H          -0.7387   12.7304   17.1269 H       1  UNL1        0.0000
     37 H          -0.6670   13.0215   18.8601 H       1  UNL1        0.0000
     38 H           1.2286   15.3833   17.3887 H       1  UNL1        0.0000
     39 H           1.2265   14.4561   15.9058 H       1  UNL1        0.0000
     40 H           2.7461   14.8979   16.6480 H       1  UNL1        0.0000
     41 H           3.3430   11.1613   17.2398 H       1  UNL1        0.0000
     42 H           2.7194   11.9149   15.7837 H       1  UNL1        0.0000
     43 H           1.7631   10.7208   16.6295 H       1  UNL1        0.0000
@<TRIPOS>BOND
     1    42    17    1
     2    39    16    1
     3    43    17    1
     4    40    16    1
     5    31    13    1
     6    17    41    1
     7    17     1    1
     8    30    13    1
     9    16    38    1
    10    16     1    1
    11    36    15    1
    12    29    13    1
    13    13    12    1
    14     1    15    1
    15     1     2    1
    16    15    35    1
    17    15    37    1
    18    12    28    1
    19    12     4    1
    20    12    14    1
    21    25    11    1
    22    33    14    1
    23     4     5   ar
    24     4     3   ar
    25     2     3    1
    26    18     5    1
    27    34    14    1
    28    14    32    1
    29     5     6   ar
    30     3     8   ar
    31    11    26    1
    32    11    27    1
    33    11     9    1
    34    21     9    1
    35     6    19    1
    36     6     7   ar
    37     8     7   ar
    38     8     9    1
    39     7    20    1
    40     9    10    1
    41    10    23    1
    42    10    24    1
    43    10    22    1
