@<TRIPOS>MOLECULE
2
 43 43 0 0 0
SMALL
GASTEIGER

@<TRIPOS>ATOM
      1 SI          2.9215   14.1650   23.9336 Si      1  UNL1        0.0000
      2 N           1.9517   14.8192   22.6891 N.pl3   1  UNL1        0.0000
      3 C           1.5304   16.1539   22.6650 C.ar    1  UNL1        0.0000
      4 C           0.4164   16.6006   23.4043 C.ar    1  UNL1        0.0000
      5 C           0.0440   17.9350   23.3465 C.ar    1  UNL1        0.0000
      6 C           0.7382   18.8420   22.5689 C.ar    1  UNL1        0.0000
      7 C           1.8293   18.4110   21.8379 C.ar    1  UNL1        0.0000
      8 C           2.2363   17.0858   21.8709 C.ar    1  UNL1        0.0000
      9 C          -0.3693   15.6381   24.2635 C.3     1  UNL1        0.0000
     10 C          -0.1917   15.9727   25.7464 C.3     1  UNL1        0.0000
     11 C          -1.8537   15.6387   23.8897 C.3     1  UNL1        0.0000
     12 C           3.4810   16.6622   21.1145 C.3     1  UNL1        0.0000
     13 C           3.3605   16.9422   19.6113 C.3     1  UNL1        0.0000
     14 C           4.6980   17.3894   21.6984 C.3     1  UNL1        0.0000
     15 C           4.2798   13.1493   23.0292 C.3     1  UNL1        0.0000
     16 C           2.0022   12.9776   25.1436 C.3     1  UNL1        0.0000
     17 C           3.7420   15.5148   25.0216 C.3     1  UNL1        0.0000
     18 H          -0.8036   18.2759   23.9227 H       1  UNL1        0.0000
     19 H           0.4355   19.8780   22.5371 H       1  UNL1        0.0000
     20 H           2.3773   19.1268   21.2416 H       1  UNL1        0.0000
     21 H           0.0289   14.6353   24.0796 H       1  UNL1        0.0000
     22 H          -0.5922   16.9596   25.9680 H       1  UNL1        0.0000
     23 H           0.8623   15.9636   26.0116 H       1  UNL1        0.0000
     24 H          -0.7140   15.2446   26.3639 H       1  UNL1        0.0000
     25 H          -2.3773   14.8587   24.4385 H       1  UNL1        0.0000
     26 H          -1.9727   15.4539   22.8239 H       1  UNL1        0.0000
     27 H          -2.3195   16.5917   24.1288 H       1  UNL1        0.0000
     28 H           3.6216   15.5739   21.2562 H       1  UNL1        0.0000
     29 H           3.0063   17.9555   19.4320 H       1  UNL1        0.0000
     30 H           2.6657   16.2348   19.1497 H       1  UNL1        0.0000
     31 H           4.3323   16.8410   19.1334 H       1  UNL1        0.0000
     32 H           5.6167   17.0362   21.2358 H       1  UNL1        0.0000
     33 H           4.7593   17.2167   22.7695 H       1  UNL1        0.0000
     34 H           4.6208   18.4610   21.5299 H       1  UNL1        0.0000
     35 H           3.9952   12.9501   21.9942 H       1  UNL1        0.0000
     36 H           4.4613   12.1947   23.5108 H       1  UNL1        0.0000
     37 H           5.2280   13.6779   23.0112 H       1  UNL1        0.0000
     38 H           1.5500   13.5203   25.9674 H       1  UNL1        0.0000
     39 H           2.6954   12.2609   25.5729 H       1  UNL1        0.0000
     40 H           1.2120   12.4133   24.6556 H       1  UNL1        0.0000
     41 H           4.7597   15.7250   24.7085 H       1  UNL1        0.0000
     42 H           3.7790   15.2206   26.0652 H       1  UNL1        0.0000
     43 H           3.1806   16.4425   24.9576 H       1  UNL1        0.0000
@<TRIPOS>BOND
     1    31    13    1
     2    30    13    1
     3    29    13    1
     4    13    12    1
     5    12    28    1
     6    12    14    1
     7    12     8    1
     8    32    14    1
     9    20     7    1
    10    34    14    1
    11    14    33    1
    12     7     8   ar
    13     7     6   ar
    14     8     3   ar
    15    35    15    1
    16    19     6    1
    17     6     5   ar
    18     3     2    1
    19     3     4   ar
    20     2     1    1
    21    26    11    1
    22    37    15    1
    23    15    36    1
    24    15     1    1
    25     5     4   ar
    26     5    18    1
    27     4     9    1
    28    11    27    1
    29    11     9    1
    30    11    25    1
    31     1    17    1
    32     1    16    1
    33    21     9    1
    34     9    10    1
    35    40    16    1
    36    41    17    1
    37    43    17    1
    38    17    42    1
    39    16    39    1
    40    16    38    1
    41    10    22    1
    42    10    23    1
    43    10    24    1
