@<TRIPOS>MOLECULE
2
 43 43 0 0 0
SMALL
GASTEIGER

@<TRIPOS>ATOM
      1 SI          5.1522   -0.0094    0.7829 Si      1  UNL1        0.0000
      2 N           4.6349    0.9350    2.1364 N.pl3   1  UNL1        0.0000
      3 C           5.4988    1.3859    3.1382 C.ar    1  UNL1        0.0000
      4 C           5.4807    0.7682    4.4115 C.ar    1  UNL1        0.0000
      5 C           6.3989    1.1394    5.3791 C.ar    1  UNL1        0.0000
      6 C           7.3343    2.1272    5.1314 C.ar    1  UNL1        0.0000
      7 C           7.3240    2.7727    3.9116 C.ar    1  UNL1        0.0000
      8 C           6.4190    2.4323    2.9162 C.ar    1  UNL1        0.0000
      9 C           4.4661   -0.3211    4.6802 C.3     1  UNL1        0.0000
     10 C           4.0567   -0.4471    6.1491 C.3     1  UNL1        0.0000
     11 C           5.0049   -1.6727    4.1954 C.3     1  UNL1        0.0000
     12 C           6.4189    3.2233    1.6284 C.3     1  UNL1        0.0000
     13 C           6.3960    4.7332    1.9002 C.3     1  UNL1        0.0000
     14 C           7.6428    2.8964    0.7696 C.3     1  UNL1        0.0000
     15 C           4.0412   -1.5766    0.6167 C.3     1  UNL1        0.0000
     16 C           4.9446    0.9598   -0.8662 C.3     1  UNL1        0.0000
     17 C           6.9525   -0.6502    0.9778 C.3     1  UNL1        0.0000
     18 H           6.3973    0.6461    6.3384 H       1  UNL1        0.0000
     19 H           8.0568    2.3961    5.8869 H       1  UNL1        0.0000
     20 H           8.0404    3.5587    3.7267 H       1  UNL1        0.0000
     21 H           3.5567   -0.0680    4.0816 H       1  UNL1        0.0000
     22 H           3.1811   -1.0878    6.2266 H       1  UNL1        0.0000
     23 H           3.8227    0.5218    6.5832 H       1  UNL1        0.0000
     24 H           4.8528   -0.9008    6.7353 H       1  UNL1        0.0000
     25 H           5.4127   -1.5842    3.1926 H       1  UNL1        0.0000
     26 H           4.2085   -2.4152    4.1963 H       1  UNL1        0.0000
     27 H           5.8014   -2.0105    4.8566 H       1  UNL1        0.0000
     28 H           5.5133    2.9488    1.0774 H       1  UNL1        0.0000
     29 H           5.6980    4.9848    2.6954 H       1  UNL1        0.0000
     30 H           6.1059    5.2707    1.0001 H       1  UNL1        0.0000
     31 H           7.3798    5.0880    2.1979 H       1  UNL1        0.0000
     32 H           7.6563    1.8467    0.4994 H       1  UNL1        0.0000
     33 H           8.5570    3.1224    1.3145 H       1  UNL1        0.0000
     34 H           7.6312    3.4931   -0.1406 H       1  UNL1        0.0000
     35 H           4.5017   -2.2876   -0.0650 H       1  UNL1        0.0000
     36 H           3.0676   -1.3274    0.1968 H       1  UNL1        0.0000
     37 H           3.8761   -2.0963    1.5594 H       1  UNL1        0.0000
     38 H           4.9786    0.2750   -1.7077 H       1  UNL1        0.0000
     39 H           5.7115    1.7099   -1.0280 H       1  UNL1        0.0000
     40 H           3.9753    1.4547   -0.8900 H       1  UNL1        0.0000
     41 H           7.5285   -0.4961    0.0724 H       1  UNL1        0.0000
     42 H           6.9761   -1.7133    1.1935 H       1  UNL1        0.0000
     43 H           7.4609   -0.1406    1.7896 H       1  UNL1        0.0000
@<TRIPOS>BOND
     1    38    16    1
     2    39    16    1
     3    40    16    1
     4    16     1    1
     5    34    14    1
     6    35    15    1
     7    41    17    1
     8    36    15    1
     9    32    14    1
    10    15     1    1
    11    15    37    1
    12    14    33    1
    13    14    12    1
    14     1    17    1
    15     1     2    1
    16    17    42    1
    17    17    43    1
    18    30    13    1
    19    28    12    1
    20    12    13    1
    21    12     8    1
    22    13    31    1
    23    13    29    1
    24     2     3    1
    25     8     3   ar
    26     8     7   ar
    27     3     4   ar
    28    25    11    1
    29    20     7    1
    30     7     6   ar
    31    21     9    1
    32    11    26    1
    33    11     9    1
    34    11    27    1
    35     4     9    1
    36     4     5   ar
    37     9    10    1
    38     6     5   ar
    39     6    19    1
    40     5    18    1
    41    10    22    1
    42    10    23    1
    43    10    24    1
