@<TRIPOS>MOLECULE
2
 43 43 0 0 0
SMALL
GASTEIGER

@<TRIPOS>ATOM
      1 SI          8.9255   10.5804   12.4881 Si      1  UNL1        0.0000
      2 N           7.5495    9.5603   12.4506 N.pl3   1  UNL1        0.0000
      3 C           7.6282    8.2076   12.0779 C.ar    1  UNL1        0.0000
      4 C           7.1475    7.8033   10.8137 C.ar    1  UNL1        0.0000
      5 C           7.2900    6.4888   10.4005 C.ar    1  UNL1        0.0000
      6 C           7.8752    5.5438   11.2213 C.ar    1  UNL1        0.0000
      7 C           8.2965    5.9173   12.4818 C.ar    1  UNL1        0.0000
      8 C           8.1802    7.2257   12.9280 C.ar    1  UNL1        0.0000
      9 C           6.5210    8.8338    9.9009 C.3     1  UNL1        0.0000
     10 C           5.3463    8.2840    9.0903 C.3     1  UNL1        0.0000
     11 C           7.5930    9.3854    8.9555 C.3     1  UNL1        0.0000
     12 C           8.5917    7.5511   14.3453 C.3     1  UNL1        0.0000
     13 C           7.6854    6.8023   15.3306 C.3     1  UNL1        0.0000
     14 C          10.0579    7.2102   14.6207 C.3     1  UNL1        0.0000
     15 C           9.1176   11.3116   14.2610 C.3     1  UNL1        0.0000
     16 C           8.8089   12.1366   11.3623 C.3     1  UNL1        0.0000
     17 C          10.5351    9.6976   11.9348 C.3     1  UNL1        0.0000
     18 H           6.9470    6.1916    9.4215 H       1  UNL1        0.0000
     19 H           7.9903    4.5240   10.8852 H       1  UNL1        0.0000
     20 H           8.7298    5.1720   13.1326 H       1  UNL1        0.0000
     21 H           6.1502    9.6502   10.5498 H       1  UNL1        0.0000
     22 H           4.8601    9.0900    8.5434 H       1  UNL1        0.0000
     23 H           4.6171    7.8100    9.7436 H       1  UNL1        0.0000
     24 H           5.6812    7.5529    8.3587 H       1  UNL1        0.0000
     25 H           8.4398    9.7570    9.5260 H       1  UNL1        0.0000
     26 H           7.1940   10.1915    8.3415 H       1  UNL1        0.0000
     27 H           7.9477    8.5950    8.2966 H       1  UNL1        0.0000
     28 H           8.4488    8.6264   14.4933 H       1  UNL1        0.0000
     29 H           6.6433    7.0779   15.1666 H       1  UNL1        0.0000
     30 H           7.9576    7.0497   16.3552 H       1  UNL1        0.0000
     31 H           7.7860    5.7267   15.2044 H       1  UNL1        0.0000
     32 H          10.7084    7.7165   13.9144 H       1  UNL1        0.0000
     33 H          10.2319    6.1398   14.5404 H       1  UNL1        0.0000
     34 H          10.3304    7.5217   15.6274 H       1  UNL1        0.0000
     35 H           8.1371   11.4734   14.7144 H       1  UNL1        0.0000
     36 H           9.6394   12.2634   14.2350 H       1  UNL1        0.0000
     37 H           9.6810   10.6571   14.9192 H       1  UNL1        0.0000
     38 H           7.9657   12.7637   11.6243 H       1  UNL1        0.0000
     39 H           8.7360   11.8992   10.3059 H       1  UNL1        0.0000
     40 H           9.7063   12.7342   11.4916 H       1  UNL1        0.0000
     41 H          10.3387    8.6532   11.7141 H       1  UNL1        0.0000
     42 H          11.3055    9.7410   12.6972 H       1  UNL1        0.0000
     43 H          10.9437   10.1501   11.0370 H       1  UNL1        0.0000
@<TRIPOS>BOND
     1    27    11    1
     2    26    11    1
     3    24    10    1
     4    22    10    1
     5    11    25    1
     6    11     9    1
     7    10    23    1
     8    10     9    1
     9    18     5    1
    10     9    21    1
    11     9     4    1
    12    39    16    1
    13     5     4   ar
    14     5     6   ar
    15     4     3   ar
    16    19     6    1
    17    43    17    1
    18     6     7   ar
    19    16    40    1
    20    16    38    1
    21    16     1    1
    22    41    17    1
    23    17     1    1
    24    17    42    1
    25     3     2    1
    26     3     8   ar
    27     2     1    1
    28     7     8   ar
    29     7    20    1
    30     1    15    1
    31     8    12    1
    32    32    14    1
    33    36    15    1
    34    15    35    1
    35    15    37    1
    36    12    28    1
    37    12    14    1
    38    12    13    1
    39    33    14    1
    40    14    34    1
    41    29    13    1
    42    31    13    1
    43    13    30    1
