@<TRIPOS>MOLECULE
1
 9 8 0 0 0
SMALL
GASTEIGER

@<TRIPOS>ATOM
      1 N           1.7350    1.9568   20.5308 N.3     1  UNL1       -0.2469
      2 C           2.1871    1.0149   21.5231 C.3     1  UNL1        0.0021
      3 H           2.0381    1.3993   22.5443 H       1  UNL1        0.0405
      4 H           3.2626    0.8013   21.4136 H       1  UNL1        0.0405
      5 H           1.6372    0.0813   21.4213 H       1  UNL1        0.0405
      6 C           2.4200    3.2156   20.6764 C.3     1  UNL1        0.0021
      7 H           3.5113    3.0839   20.6166 H       1  UNL1        0.0405
      8 H           2.2012    3.6869   21.6479 H       1  UNL1        0.0405
      9 H           2.1066    3.8902   19.8829 H       1  UNL1        0.0405
@<TRIPOS>BOND
     1     9     6    1
     2     1     6    1
     3     1     2    1
     4     7     6    1
     5     6     8    1
     6     4     2    1
     7     5     2    1
     8     2     3    1
