@<TRIPOS>MOLECULE
1
 9 8 0 0 0
SMALL
GASTEIGER

@<TRIPOS>ATOM
      1 N           0.2852   -0.4646   18.7890 N.3     1  UNL1       -0.2469
      2 C          -0.0777   -1.4401   19.7916 C.3     1  UNL1        0.0021
      3 H          -0.8981   -2.0866   19.4464 H       1  UNL1        0.0405
      4 H          -0.3931   -0.9352   20.7009 H       1  UNL1        0.0405
      5 H           0.7750   -2.0948   20.0312 H       1  UNL1        0.0405
      6 C           0.6566   -1.1573   17.5751 C.3     1  UNL1        0.0021
      7 H          -0.1693   -1.7834   17.2058 H       1  UNL1        0.0405
      8 H           1.5189   -1.8200   17.7446 H       1  UNL1        0.0405
      9 H           0.9121   -0.4368   16.8035 H       1  UNL1        0.0405
@<TRIPOS>BOND
     1     9     6    1
     2     7     6    1
     3     6     8    1
     4     6     1    1
     5     1     2    1
     6     3     2    1
     7     2     5    1
     8     2     4    1
