@<TRIPOS>MOLECULE
1
 9 8 0 0 0
SMALL
GASTEIGER

@<TRIPOS>ATOM
      1 N           1.8619    1.6998   17.6495 N.3     1  UNL1       -0.2469
      2 C           3.1928    1.1804   17.8682 C.3     1  UNL1        0.0021
      3 H           3.9508    1.9707   17.7483 H       1  UNL1        0.0405
      4 H           3.4377    0.3875   17.1446 H       1  UNL1        0.0405
      5 H           3.2734    0.7659   18.8702 H       1  UNL1        0.0405
      6 C           1.7846    2.1902   16.2958 C.3     1  UNL1        0.0021
      7 H           2.5350    2.9758   16.1060 H       1  UNL1        0.0405
      8 H           0.7916    2.5916   16.1112 H       1  UNL1        0.0405
      9 H           1.9780    1.3894   15.5624 H       1  UNL1        0.0405
@<TRIPOS>BOND
     1     9     6    1
     2     7     6    1
     3     8     6    1
     4     6     1    1
     5     4     2    1
     6     1     2    1
     7     3     2    1
     8     2     5    1
