@<TRIPOS>MOLECULE
1
 9 8 0 0 0
SMALL
GASTEIGER

@<TRIPOS>ATOM
      1 N          -1.1327    1.4118   20.4358 N.3     1  UNL1       -0.2469
      2 C          -2.4247    0.8436   20.1382 C.3     1  UNL1        0.0021
      3 H          -2.6879    0.0381   20.8420 H       1  UNL1        0.0405
      4 H          -2.4273    0.4408   19.1268 H       1  UNL1        0.0405
      5 H          -3.2224    1.6007   20.2129 H       1  UNL1        0.0405
      6 C          -1.1414    1.9208   21.7857 C.3     1  UNL1        0.0021
      7 H          -1.2374    1.1052   22.5221 H       1  UNL1        0.0405
      8 H          -1.9865    2.6053   21.9603 H       1  UNL1        0.0405
      9 H          -0.2180    2.4607   21.9796 H       1  UNL1        0.0405
@<TRIPOS>BOND
     1     4     2    1
     2     2     5    1
     3     2     1    1
     4     2     3    1
     5     1     6    1
     6     6     8    1
     7     6     9    1
     8     6     7    1
