@<TRIPOS>MOLECULE
1
 9 8 0 0 0
SMALL
GASTEIGER

@<TRIPOS>ATOM
      1 N           1.5454   14.0892    4.3851 N.3     1  UNL1       -0.2469
      2 C           1.1809   13.5112    5.6539 C.3     1  UNL1        0.0021
      3 C           0.4232   13.9291    3.4882 C.3     1  UNL1        0.0021
      4 H           0.9671   12.4350    5.5589 H       1  UNL1        0.0405
      5 H           0.2745   13.9866    6.0601 H       1  UNL1        0.0405
      6 H           1.9892   13.6453    6.3649 H       1  UNL1        0.0405
      7 H           0.1052   12.8777    3.4276 H       1  UNL1        0.0405
      8 H           0.6939   14.2737    2.4943 H       1  UNL1        0.0405
      9 H          -0.4459   14.5068    3.8395 H       1  UNL1        0.0405
@<TRIPOS>BOND
     1     8     3    1
     2     7     3    1
     3     3     9    1
     4     3     1    1
     5     1     2    1
     6     4     2    1
     7     2     5    1
     8     2     6    1
