@<TRIPOS>MOLECULE
1
 9 8 0 0 0
SMALL
GASTEIGER

@<TRIPOS>ATOM
      1 N           3.2118   14.3539    2.0787 N.3     1  UNL1       -0.2469
      2 C           2.9541   12.9671    1.7670 C.3     1  UNL1        0.0021
      3 C           3.5126   15.0677    0.8586 C.3     1  UNL1        0.0021
      4 H           2.1650   12.8616    1.0096 H       1  UNL1        0.0405
      5 H           2.6490   12.4399    2.6687 H       1  UNL1        0.0405
      6 H           3.8552   12.4804    1.3617 H       1  UNL1        0.0405
      7 H           2.6303   15.1073    0.2044 H       1  UNL1        0.0405
      8 H           4.3214   14.5831    0.2937 H       1  UNL1        0.0405
      9 H           3.8016   16.0893    1.0917 H       1  UNL1        0.0405
@<TRIPOS>BOND
     1     7     3    1
     2     8     3    1
     3     3     9    1
     4     3     1    1
     5     4     2    1
     6     6     2    1
     7     2     1    1
     8     2     5    1
