@<TRIPOS>MOLECULE
1
 9 8 0 0 0
SMALL
GASTEIGER

@<TRIPOS>ATOM
      1 N           4.9193   16.1485    3.4850 N.3     1  UNL1       -0.2469
      2 C           6.0318   15.5623    2.7729 C.3     1  UNL1        0.0021
      3 C           5.2696   17.5137    3.7950 C.3     1  UNL1        0.0021
      4 H           6.3091   16.1711    1.8993 H       1  UNL1        0.0405
      5 H           5.7770   14.5616    2.4358 H       1  UNL1        0.0405
      6 H           6.9205   15.5003    3.4175 H       1  UNL1        0.0405
      7 H           5.4574   18.0888    2.8753 H       1  UNL1        0.0405
      8 H           6.1894   17.5664    4.3955 H       1  UNL1        0.0405
      9 H           4.4683   17.9877    4.3517 H       1  UNL1        0.0405
@<TRIPOS>BOND
     1     4     2    1
     2     5     2    1
     3     2     6    1
     4     2     1    1
     5     7     3    1
     6     1     3    1
     7     3     9    1
     8     3     8    1
