@<TRIPOS>MOLECULE
1
 11 11 0 0 0
SMALL
GASTEIGER

@<TRIPOS>ATOM
      1 N           3.2997    1.9024   14.7903 N.pl3   1  UNL1       -0.2487
      2 C           2.3022    0.9758   14.7592 C.3     1  UNL1        0.0840
      3 C           2.1109    0.0059   15.7122 C.2     1  UNL1       -0.0600
      4 C           2.9572   -0.0680   16.8156 C.2     1  UNL1       -0.0626
      5 C           3.9661    0.8890   16.8853 C.2     1  UNL1       -0.0466
      6 C           4.0971    1.8288   15.8933 C.2     1  UNL1        0.0121
      7 H           1.6440    1.0359   13.9010 H       1  UNL1        0.0584
      8 H           1.2949   -0.6919   15.5960 H       1  UNL1        0.0592
      9 H           2.8321   -0.8184   17.5782 H       1  UNL1        0.0615
     10 H           4.6570    0.9042   17.7144 H       1  UNL1        0.0630
     11 H           4.8884    2.5666   15.9541 H       1  UNL1        0.0797
@<TRIPOS>BOND
     1     7     2    1
     2     2     1    1
     3     2     3    1
     4     1     6    1
     5     8     3    1
     6     3     4    2
     7     6    11    1
     8     6     5    2
     9     4     5    1
    10     4     9    1
    11     5    10    1
