@<TRIPOS>MOLECULE
3
 27 26 0 0 0
SMALL
GASTEIGER

@<TRIPOS>ATOM
      1 SI          4.7817   10.7343    3.4530 Si      1  UNL1        0.0000
      2 SI          5.5758   12.6923    1.2826 Si      1  UNL1        0.0000
      3 N           4.7826   12.3163    2.7662 N.3     1  UNL1        0.0000
      4 C           3.8610   10.9014    5.1314 C.3     1  UNL1        0.0000
      5 H           4.5400   11.1837    5.9324 H       1  UNL1        0.0000
      6 H           3.3975    9.9648    5.4268 H       1  UNL1        0.0000
      7 H           3.0721   11.6599    5.0833 H       1  UNL1        0.0000
      8 C           7.4612   12.9720    1.4943 C.3     1  UNL1        0.0000
      9 H           7.6830   13.7277    2.2415 H       1  UNL1        0.0000
     10 H           7.9196   13.2862    0.5621 H       1  UNL1        0.0000
     11 H           7.9478   12.0537    1.8049 H       1  UNL1        0.0000
     12 C           3.8826    9.4003    2.4035 C.3     1  UNL1        0.0000
     13 H           3.0637    9.8002    1.8157 H       1  UNL1        0.0000
     14 H           3.4857    8.6050    3.0274 H       1  UNL1        0.0000
     15 H           4.5803    8.9453    1.7095 H       1  UNL1        0.0000
     16 C           6.5130    9.9880    3.7764 C.3     1  UNL1        0.0000
     17 H           7.0247    9.8160    2.8354 H       1  UNL1        0.0000
     18 H           6.4378    9.0335    4.2872 H       1  UNL1        0.0000
     19 H           7.1428   10.6346    4.3772 H       1  UNL1        0.0000
     20 C           4.7830   14.3232    0.6378 C.3     1  UNL1        0.0000
     21 H           4.0424   14.1221   -0.1307 H       1  UNL1        0.0000
     22 H           5.5292   14.9773    0.1989 H       1  UNL1        0.0000
     23 H           4.2866   14.8879    1.4383 H       1  UNL1        0.0000
     24 C           5.3722   11.3883   -0.0969 C.3     1  UNL1        0.0000
     25 H           5.9003   10.4777    0.1610 H       1  UNL1        0.0000
     26 H           5.7758   11.7477   -1.0377 H       1  UNL1        0.0000
     27 H           4.3321   11.1278   -0.2617 H       1  UNL1        0.0000
@<TRIPOS>BOND
     1    26    24    1
     2    27    24    1
     3    21    20    1
     4    24    25    1
     5    24     2    1
     6    22    20    1
     7    10     8    1
     8    20     2    1
     9    20    23    1
    10     2     8    1
    11     2     3    1
    12     8    11    1
    13     8     9    1
    14    15    12    1
    15    13    12    1
    16    12    14    1
    17    12     1    1
    18     3     1    1
    19    17    16    1
    20     1    16    1
    21     1     4    1
    22    16    18    1
    23    16    19    1
    24     7     4    1
    25     4     6    1
    26     4     5    1
