@<TRIPOS>MOLECULE
1
 9 8 0 0 0
SMALL
GASTEIGER

@<TRIPOS>ATOM
      1 N           4.7645    5.1248   10.4756 N.3     1  UNL1       -0.2469
      2 C           3.4343    5.5320   10.0682 C.3     1  UNL1        0.0021
      3 H           3.2003    6.5410   10.4562 H       1  UNL1        0.0405
      4 H           2.6796    4.8440   10.4536 H       1  UNL1        0.0405
      5 H           3.3348    5.5872    8.9655 H       1  UNL1        0.0405
      6 C           5.6913    6.1647   10.0729 C.3     1  UNL1        0.0021
      7 H           5.6805    6.3236    8.9785 H       1  UNL1        0.0405
      8 H           6.7115    5.9199   10.3790 H       1  UNL1        0.0405
      9 H           5.4179    7.1356   10.5298 H       1  UNL1        0.0405
@<TRIPOS>BOND
     1     5     2    1
     2     7     6    1
     3     2     4    1
     4     2     3    1
     5     2     1    1
     6     6     8    1
     7     6     1    1
     8     6     9    1
