@<TRIPOS>MOLECULE
1
 9 8 0 0 0
SMALL
GASTEIGER

@<TRIPOS>ATOM
      1 N           3.5356    2.2420   10.7143 N.3     1  UNL1       -0.2469
      2 C           2.7545    1.6075   11.7573 C.3     1  UNL1        0.0021
      3 H           1.8957    2.2357   12.0677 H       1  UNL1        0.0405
      4 H           3.3662    1.3982   12.6346 H       1  UNL1        0.0405
      5 H           2.3245    0.6504   11.4056 H       1  UNL1        0.0405
      6 C           2.6783    2.3856    9.5485 C.3     1  UNL1        0.0021
      7 H           2.4201    1.4006    9.1166 H       1  UNL1        0.0405
      8 H           3.1662    2.9876    8.7777 H       1  UNL1        0.0405
      9 H           1.7167    2.8678    9.8087 H       1  UNL1        0.0405
@<TRIPOS>BOND
     1     8     6    1
     2     7     6    1
     3     6     9    1
     4     6     1    1
     5     1     2    1
     6     5     2    1
     7     2     3    1
     8     2     4    1
