@<TRIPOS>MOLECULE
1
 11 11 0 0 0
SMALL
GASTEIGER

@<TRIPOS>ATOM
      1 N          12.5107   11.8777   10.2926 N.pl3   1  UNL1       -0.2487
      2 C          11.6592   10.9181   10.6405 C.3     1  UNL1        0.0840
      3 H          11.7075   10.5799   11.6689 H       1  UNL1        0.0584
      4 C          10.7545   10.3544    9.7549 C.2     1  UNL1       -0.0600
      5 H          10.0858    9.5753   10.0856 H       1  UNL1        0.0592
      6 C          10.7384   10.8070    8.4451 C.2     1  UNL1       -0.0626
      7 H          10.0543   10.3844    7.7240 H       1  UNL1        0.0615
      8 C          11.6211   11.8128    8.0826 C.2     1  UNL1       -0.0466
      9 H          11.6447   12.1934    7.0738 H       1  UNL1        0.0630
     10 C          12.4885   12.3195    9.0378 C.2     1  UNL1        0.0121
     11 H          13.2068   13.0979    8.8057 H       1  UNL1        0.0797
@<TRIPOS>BOND
     1     9     8    1
     2     7     6    1
     3     8     6    1
     4     8    10    2
     5     6     4    2
     6    11    10    1
     7    10     1    1
     8     4     5    1
     9     4     2    1
    10     1     2    1
    11     2     3    1
