@<TRIPOS>MOLECULE
3
 27 26 0 0 0
SMALL
GASTEIGER

@<TRIPOS>ATOM
      1 SI          2.3877    5.9041    3.5773 Si      1  UNL1        0.0000
      2 SI          2.1621    8.9878    3.4478 Si      1  UNL1        0.0000
      3 N           1.7427    7.4313    4.0327 N.3     1  UNL1        0.0000
      4 C           1.1148   10.2854    4.3776 C.3     1  UNL1        0.0000
      5 H           0.0933    9.9487    4.5090 H       1  UNL1        0.0000
      6 H           1.0878   11.2190    3.8260 H       1  UNL1        0.0000
      7 H           1.5215   10.4985    5.3593 H       1  UNL1        0.0000
      8 C           4.0143    9.4492    3.6462 C.3     1  UNL1        0.0000
      9 H           4.6504    8.5953    3.4318 H       1  UNL1        0.0000
     10 H           4.2507    9.7958    4.6466 H       1  UNL1        0.0000
     11 H           4.2905   10.2402    2.9556 H       1  UNL1        0.0000
     12 C           1.8074    9.1773    1.5729 C.3     1  UNL1        0.0000
     13 H           1.6011    8.2235    1.1040 H       1  UNL1        0.0000
     14 H           2.6640    9.6095    1.0662 H       1  UNL1        0.0000
     15 H           0.9594    9.8281    1.3869 H       1  UNL1        0.0000
     16 C           3.8500    5.3087    4.6859 C.3     1  UNL1        0.0000
     17 H           3.5541    5.2325    5.7328 H       1  UNL1        0.0000
     18 H           4.7125    5.9674    4.6270 H       1  UNL1        0.0000
     19 H           4.1849    4.3202    4.3841 H       1  UNL1        0.0000
     20 C           1.0162    4.6034    3.8929 C.3     1  UNL1        0.0000
     21 H           0.4196    4.8739    4.7698 H       1  UNL1        0.0000
     22 H           1.4308    3.6167    4.0719 H       1  UNL1        0.0000
     23 H           0.3258    4.5291    3.0612 H       1  UNL1        0.0000
     24 C           2.9736    5.7945    1.7723 C.3     1  UNL1        0.0000
     25 H           3.6608    6.5986    1.5394 H       1  UNL1        0.0000
     26 H           2.1375    5.8614    1.0864 H       1  UNL1        0.0000
     27 H           3.4801    4.8539    1.5857 H       1  UNL1        0.0000
@<TRIPOS>BOND
     1    14    12    1
     2    26    24    1
     3    13    12    1
     4    15    12    1
     5    25    24    1
     6    12     2    1
     7    27    24    1
     8    24     1    1
     9    11     8    1
    10    23    20    1
    11     9     8    1
    12     2     8    1
    13     2     3    1
    14     2     4    1
    15     1    20    1
    16     1     3    1
    17     1    16    1
    18     8    10    1
    19     6     4    1
    20    20    22    1
    21    20    21    1
    22     4     5    1
    23     4     7    1
    24    19    16    1
    25    18    16    1
    26    16    17    1
