@<TRIPOS>MOLECULE
1
 31 31 0 0 0
SMALL
GASTEIGER

@<TRIPOS>ATOM
      1 N           0.2311   15.7704    1.5357 N.pl3   1  UNL1       -0.2449
      2 C          -0.1955   14.5529    2.0318 C.ar    1  UNL1        0.0488
      3 C          -0.1180   14.3225    3.4198 C.ar    1  UNL1       -0.0362
      4 H           0.3204   15.0879    4.0459 H       1  UNL1        0.0639
      5 C          -0.6126   13.1714    4.0058 C.ar    1  UNL1       -0.0484
      6 C          -1.1647   12.1756    3.2082 C.ar    1  UNL1       -0.0558
      7 H          -1.5593   11.2766    3.6591 H       1  UNL1        0.0623
      8 C          -1.1966   12.3313    1.8298 C.ar    1  UNL1       -0.0484
      9 C          -0.7224   13.5002    1.2588 C.ar    1  UNL1       -0.0362
     10 H          -0.7495   13.5713    0.1829 H       1  UNL1        0.0639
     11 C          -0.4841   16.3618    0.3962 C.3     1  UNL1        0.0453
     12 C          -0.5798   13.0006    5.4975 C.3     1  UNL1       -0.0396
     13 H          -0.1806   13.8917    5.9758 H       1  UNL1        0.0278
     14 H           0.0323   12.1413    5.7720 H       1  UNL1        0.0278
     15 H          -1.5855   12.8221    5.8765 H       1  UNL1        0.0278
     16 C          -1.7449   11.2303    0.9685 C.3     1  UNL1       -0.0396
     17 H          -1.1675   10.3171    1.1084 H       1  UNL1        0.0278
     18 H          -1.7137   11.5008   -0.0843 H       1  UNL1        0.0278
     19 H          -2.7776   11.0146    1.2405 H       1  UNL1        0.0278
     20 C          -0.3362   17.8963    0.4617 C.3     1  UNL1       -0.0424
     21 H          -0.7047   18.3386   -0.4632 H       1  UNL1        0.0251
     22 H           0.7105   18.1741    0.5867 H       1  UNL1        0.0251
     23 H          -0.9211   18.3030    1.2849 H       1  UNL1        0.0251
     24 C           0.0740   15.9190   -0.9747 C.3     1  UNL1       -0.0424
     25 H           0.0247   14.8423   -1.1121 H       1  UNL1        0.0251
     26 H           1.1138   16.2319   -1.0695 H       1  UNL1        0.0251
     27 H          -0.5025   16.3845   -1.7723 H       1  UNL1        0.0251
     28 C          -2.0008   16.0825    0.4680 C.3     1  UNL1       -0.0424
     29 H          -2.2554   15.0735    0.1637 H       1  UNL1        0.0251
     30 H          -2.5279   16.7746   -0.1856 H       1  UNL1        0.0251
     31 H          -2.3520   16.2258    1.4884 H       1  UNL1        0.0251
@<TRIPOS>BOND
     1    27    24    1
     2    25    24    1
     3    26    24    1
     4    24    11    1
     5    21    20    1
     6    30    28    1
     7    18    16    1
     8    29    28    1
     9    10     9    1
    10    11    20    1
    11    11    28    1
    12    11     1    1
    13    20    22    1
    14    20    23    1
    15    28    31    1
    16    16    17    1
    17    16    19    1
    18    16     8    1
    19     9     8   ar
    20     9     2   ar
    21     1     2    1
    22     8     6   ar
    23     2     3   ar
    24     6     7    1
    25     6     5   ar
    26     3     5   ar
    27     3     4    1
    28     5    12    1
    29    12    14    1
    30    12    15    1
    31    12    13    1
