@<TRIPOS>MOLECULE
1
 31 31 0 0 0
SMALL
GASTEIGER

@<TRIPOS>ATOM
      1 N           2.8634   14.9288    2.7681 N.pl3   1  UNL1       -0.2449
      2 C           3.3191   15.0401    4.0890 C.ar    1  UNL1        0.0488
      3 C           2.9025   14.1866    5.1148 C.ar    1  UNL1       -0.0362
      4 H           2.1482   13.4432    4.9159 H       1  UNL1        0.0639
      5 C           3.4243   14.2886    6.3978 C.ar    1  UNL1       -0.0484
      6 C           4.3696   15.2639    6.6726 C.ar    1  UNL1       -0.0558
      7 H           4.7896   15.3441    7.6659 H       1  UNL1        0.0623
      8 C           4.7867   16.1490    5.6819 C.ar    1  UNL1       -0.0484
      9 C           4.2604   16.0324    4.4066 C.ar    1  UNL1       -0.0362
     10 H           4.5923   16.6920    3.6143 H       1  UNL1        0.0639
     11 C           3.3101   13.7397    2.0365 C.3     1  UNL1        0.0453
     12 C           2.9688   13.3328    7.4616 C.3     1  UNL1       -0.0396
     13 H           3.3648   13.6119    8.4351 H       1  UNL1        0.0278
     14 H           3.3089   12.3235    7.2304 H       1  UNL1        0.0278
     15 H           1.8823   13.3126    7.5161 H       1  UNL1        0.0278
     16 C           5.8175   17.1910    6.0099 C.3     1  UNL1       -0.0396
     17 H           6.7759   16.7166    6.2207 H       1  UNL1        0.0278
     18 H           5.5253   17.7548    6.8952 H       1  UNL1        0.0278
     19 H           5.9545   17.8829    5.1830 H       1  UNL1        0.0278
     20 C           2.6598   12.4251    2.5182 C.3     1  UNL1       -0.0424
     21 H           3.0420   12.1373    3.4934 H       1  UNL1        0.0251
     22 H           2.9014   11.6266    1.8193 H       1  UNL1        0.0251
     23 H           1.5798   12.5275    2.5687 H       1  UNL1        0.0251
     24 C           2.9641   13.9105    0.5490 C.3     1  UNL1       -0.0424
     25 H           1.8987   14.1134    0.4352 H       1  UNL1        0.0251
     26 H           3.2043   12.9969    0.0061 H       1  UNL1        0.0251
     27 H           3.5401   14.7213    0.1029 H       1  UNL1        0.0251
     28 C           4.8384   13.5871    2.1716 C.3     1  UNL1       -0.0424
     29 H           5.3298   14.5036    1.8554 H       1  UNL1        0.0251
     30 H           5.1895   12.7623    1.5549 H       1  UNL1        0.0251
     31 H           5.1101   13.3885    3.2070 H       1  UNL1        0.0251
@<TRIPOS>BOND
     1    26    24    1
     2    27    24    1
     3    25    24    1
     4    24    11    1
     5    30    28    1
     6    22    20    1
     7    29    28    1
     8    11    28    1
     9    11    20    1
    10    11     1    1
    11    28    31    1
    12    20    23    1
    13    20    21    1
    14     1     2    1
    15    10     9    1
    16     2     9   ar
    17     2     3   ar
    18     9     8   ar
    19     4     3    1
    20     3     5   ar
    21    19    16    1
    22     8    16    1
    23     8     6   ar
    24    16    17    1
    25    16    18    1
    26     5     6   ar
    27     5    12    1
    28     6     7    1
    29    14    12    1
    30    12    15    1
    31    12    13    1
