@<TRIPOS>MOLECULE
1
 31 31 0 0 0
SMALL
GASTEIGER

@<TRIPOS>ATOM
      1 N           1.7077   17.7445    3.4033 N.pl3   1  UNL1       -0.2449
      2 C           0.8033   17.3887    4.4284 C.ar    1  UNL1        0.0488
      3 C           1.2393   17.0374    5.7117 C.ar    1  UNL1       -0.0362
      4 H           2.2958   17.0186    5.9284 H       1  UNL1        0.0639
      5 C           0.3414   16.6879    6.7093 C.ar    1  UNL1       -0.0484
      6 C          -1.0193   16.6762    6.4307 C.ar    1  UNL1       -0.0558
      7 H          -1.7197   16.3929    7.2038 H       1  UNL1        0.0623
      8 C          -1.4863   17.0183    5.1701 C.ar    1  UNL1       -0.0484
      9 C          -0.5762   17.3896    4.1916 C.ar    1  UNL1       -0.0362
     10 H          -0.9361   17.6561    3.2087 H       1  UNL1        0.0639
     11 C           2.1475   19.1416    3.4706 C.3     1  UNL1        0.0453
     12 C           0.8340   16.3463    8.0848 C.3     1  UNL1       -0.0396
     13 H           0.7089   17.2030    8.7480 H       1  UNL1        0.0278
     14 H           1.8876   16.0829    8.0603 H       1  UNL1        0.0278
     15 H           0.2681   15.5171    8.5049 H       1  UNL1        0.0278
     16 C          -2.9499   16.9565    4.8488 C.3     1  UNL1       -0.0396
     17 H          -3.5521   16.9983    5.7531 H       1  UNL1        0.0278
     18 H          -3.1685   16.0192    4.3356 H       1  UNL1        0.0278
     19 H          -3.2403   17.7749    4.1932 H       1  UNL1        0.0278
     20 C           0.9499   20.1040    3.3153 C.3     1  UNL1       -0.0424
     21 H           0.4663   19.9589    2.3519 H       1  UNL1        0.0251
     22 H           1.2910   21.1350    3.3809 H       1  UNL1        0.0251
     23 H           0.2211   19.9304    4.1045 H       1  UNL1        0.0251
     24 C           2.8414   19.4683    4.8094 C.3     1  UNL1       -0.0424
     25 H           2.1340   19.4122    5.6329 H       1  UNL1        0.0251
     26 H           3.2477   20.4772    4.7763 H       1  UNL1        0.0251
     27 H           3.6522   18.7692    4.9927 H       1  UNL1        0.0251
     28 C           3.1494   19.4334    2.3465 C.3     1  UNL1       -0.0424
     29 H           4.0149   18.7771    2.4344 H       1  UNL1        0.0251
     30 H           3.4907   20.4658    2.4172 H       1  UNL1        0.0251
     31 H           2.6905   19.2983    1.3652 H       1  UNL1        0.0251
@<TRIPOS>BOND
     1    31    28    1
     2    28    30    1
     3    28    29    1
     4    28    11    1
     5    21    20    1
     6    10     9    1
     7    20    22    1
     8    20    11    1
     9    20    23    1
    10     1    11    1
    11     1     2    1
    12    11    24    1
    13     9     2   ar
    14     9     8   ar
    15    19    16    1
    16    18    16    1
    17     2     3   ar
    18    26    24    1
    19    24    27    1
    20    24    25    1
    21    16     8    1
    22    16    17    1
    23     8     6   ar
    24     3     4    1
    25     3     5   ar
    26     6     5   ar
    27     6     7    1
    28     5    12    1
    29    14    12    1
    30    12    15    1
    31    12    13    1
