@<TRIPOS>MOLECULE
3
 27 26 0 0 0
SMALL
GASTEIGER

@<TRIPOS>ATOM
      1 SI          1.5010   -0.9209   10.1344 Si      1  UNL1        0.0000
      2 SI          3.0457   -2.3174    7.9609 Si      1  UNL1        0.0000
      3 N           2.3972   -0.8735    8.6494 N.3     1  UNL1        0.0000
      4 C           2.6835   -0.5987   11.6087 C.3     1  UNL1        0.0000
      5 H           3.2416   -1.4995   11.8486 H       1  UNL1        0.0000
      6 H           2.1310   -0.3113   12.4976 H       1  UNL1        0.0000
      7 H           3.4007    0.1862   11.3973 H       1  UNL1        0.0000
      8 C           0.7199   -2.6223   10.5192 C.3     1  UNL1        0.0000
      9 H           1.4707   -3.4000   10.6096 H       1  UNL1        0.0000
     10 H           0.0158   -2.9307    9.7543 H       1  UNL1        0.0000
     11 H           0.1813   -2.5784   11.4607 H       1  UNL1        0.0000
     12 C           0.0204    0.2850   10.0585 C.3     1  UNL1        0.0000
     13 H           0.1881    1.0967    9.3601 H       1  UNL1        0.0000
     14 H          -0.1780    0.7196   11.0326 H       1  UNL1        0.0000
     15 H          -0.8795   -0.2385    9.7502 H       1  UNL1        0.0000
     16 C           1.7924   -3.6929    7.5046 C.3     1  UNL1        0.0000
     17 H           0.7928   -3.3060    7.3393 H       1  UNL1        0.0000
     18 H           1.7280   -4.4181    8.3079 H       1  UNL1        0.0000
     19 H           2.0960   -4.2289    6.6091 H       1  UNL1        0.0000
     20 C           4.3466   -3.2149    9.0432 C.3     1  UNL1        0.0000
     21 H           5.1542   -2.5739    9.3796 H       1  UNL1        0.0000
     22 H           4.7877   -4.0486    8.5046 H       1  UNL1        0.0000
     23 H           3.8623   -3.6155    9.9276 H       1  UNL1        0.0000
     24 C           3.8738   -1.7602    6.3128 C.3     1  UNL1        0.0000
     25 H           3.7675   -0.6640    6.1686 H       1  UNL1        0.0000
     26 H           3.4154   -2.2453    5.4552 H       1  UNL1        0.0000
     27 H           4.9326   -2.0019    6.2832 H       1  UNL1        0.0000
@<TRIPOS>BOND
     1    26    24    1
     2    25    24    1
     3    27    24    1
     4    24     2    1
     5    19    16    1
     6    17    16    1
     7    16     2    1
     8    16    18    1
     9     2     3    1
    10     2    20    1
    11    22    20    1
    12     3     1    1
    13    20    21    1
    14    20    23    1
    15    13    12    1
    16    15    12    1
    17    10     8    1
    18    12     1    1
    19    12    14    1
    20     1     8    1
    21     1     4    1
    22     8     9    1
    23     8    11    1
    24     7     4    1
    25     4     5    1
    26     4     6    1
