@<TRIPOS>MOLECULE
3
 27 26 0 0 0
SMALL
GASTEIGER

@<TRIPOS>ATOM
      1 SI          1.9218   11.8342   12.3070 Si      1  UNL1        0.0000
      2 SI          4.7028   11.4418   11.3646 Si      1  UNL1        0.0000
      3 N           3.1620   10.7640   11.7560 N.3     1  UNL1        0.0000
      4 C           0.1728   11.1108   12.0154 C.3     1  UNL1        0.0000
      5 H          -0.2331   11.4365   11.0630 H       1  UNL1        0.0000
      6 H          -0.5127   11.4415   12.7898 H       1  UNL1        0.0000
      7 H           0.1850   10.0268   12.0149 H       1  UNL1        0.0000
      8 C           1.8409   13.5345   11.4265 C.3     1  UNL1        0.0000
      9 H           2.7502   14.1049   11.5715 H       1  UNL1        0.0000
     10 H           1.0168   14.1297   11.8082 H       1  UNL1        0.0000
     11 H           1.6940   13.4225   10.3566 H       1  UNL1        0.0000
     12 C           2.0582   12.1939   14.1882 C.3     1  UNL1        0.0000
     13 H           2.0365   11.2788   14.7721 H       1  UNL1        0.0000
     14 H           1.2432   12.8256   14.5287 H       1  UNL1        0.0000
     15 H           2.9856   12.7064   14.4173 H       1  UNL1        0.0000
     16 C           6.1025   10.1383   11.4591 C.3     1  UNL1        0.0000
     17 H           6.5716   10.1359   12.4378 H       1  UNL1        0.0000
     18 H           6.8770   10.3539   10.7293 H       1  UNL1        0.0000
     19 H           5.7289    9.1383   11.2703 H       1  UNL1        0.0000
     20 C           5.3185   12.8279   12.5363 C.3     1  UNL1        0.0000
     21 H           4.6599   13.6877   12.5209 H       1  UNL1        0.0000
     22 H           6.3083   13.1685   12.2478 H       1  UNL1        0.0000
     23 H           5.3790   12.4828   13.5639 H       1  UNL1        0.0000
     24 C           4.7487   12.1613    9.5850 C.3     1  UNL1        0.0000
     25 H           4.4935   11.4100    8.8440 H       1  UNL1        0.0000
     26 H           5.7341   12.5473    9.3418 H       1  UNL1        0.0000
     27 H           4.0436   12.9779    9.4797 H       1  UNL1        0.0000
@<TRIPOS>BOND
     1    25    24    1
     2    26    24    1
     3    27    24    1
     4    24     2    1
     5    11     8    1
     6    18    16    1
     7     5     4    1
     8    19    16    1
     9     2    16    1
    10     2     3    1
    11     2    20    1
    12     8     9    1
    13     8    10    1
    14     8     1    1
    15    16    17    1
    16     3     1    1
    17     7     4    1
    18     4     1    1
    19     4     6    1
    20    22    20    1
    21     1    12    1
    22    21    20    1
    23    20    23    1
    24    12    15    1
    25    12    14    1
    26    12    13    1
