@<TRIPOS>MOLECULE
1
 19 19 0 0 0
SMALL
GASTEIGER

@<TRIPOS>ATOM
      1 N           2.7108    2.7071    3.3198 N.pl3   1  UNL1       -0.2660
      2 H           3.2913    3.3443    3.8651 H       1  UNL1        0.1699
      3 C           3.4864    1.8207    2.6226 C.ar    1  UNL1        0.0501
      4 C           4.9000    1.8832    2.6639 C.ar    1  UNL1       -0.0279
      5 C           5.6409    0.9933    1.9097 C.ar    1  UNL1       -0.0570
      6 H           6.7203    1.0508    1.9408 H       1  UNL1        0.0621
      7 C           5.0329    0.0358    1.1138 C.ar    1  UNL1       -0.0611
      8 H           5.6317   -0.6452    0.5283 H       1  UNL1        0.0618
      9 C           3.6532   -0.0420    1.0796 C.ar    1  UNL1       -0.0570
     10 H           3.1684   -0.7907    0.4676 H       1  UNL1        0.0621
     11 C           2.8763    0.8266    1.8258 C.ar    1  UNL1       -0.0279
     12 C           5.5930    2.9152    3.5090 C.3     1  UNL1       -0.0379
     13 H           5.3303    3.9261    3.1902 H       1  UNL1        0.0278
     14 H           6.6714    2.8045    3.4247 H       1  UNL1        0.0278
     15 H           5.3239    2.8096    4.5621 H       1  UNL1        0.0278
     16 C           1.3848    0.7022    1.8182 C.3     1  UNL1       -0.0379
     17 H           0.8879    1.7099    1.8713 H       1  UNL1        0.0278
     18 H           1.0454    0.0904    2.6620 H       1  UNL1        0.0278
     19 H           1.0423    0.2131    0.9049 H       1  UNL1        0.0278
@<TRIPOS>BOND
     1    10     9    1
     2     8     7    1
     3    19    16    1
     4     9     7   ar
     5     9    11   ar
     6     7     5   ar
     7    16    11    1
     8    16    17    1
     9    16    18    1
    10    11     3   ar
    11     5     6    1
    12     5     4   ar
    13     3     4   ar
    14     3     1    1
    15     4    12    1
    16    13    12    1
    17     1     2    1
    18    14    12    1
    19    12    15    1
