@<TRIPOS>MOLECULE
1
 43 43 0 0 0
SMALL
GASTEIGER

@<TRIPOS>ATOM
      1 N          -0.1883    0.4761    4.6869 N.pl3   1  UNL1        0.0000
      2 SI          1.2774    0.1055    3.8365 Si      1  UNL1        0.0000
      3 C          -0.8696   -0.5857    5.2904 C.ar    1  UNL1        0.0000
      4 C          -0.5175   -1.0003    6.5915 C.ar    1  UNL1        0.0000
      5 C          -1.1606   -2.0850    7.1639 C.ar    1  UNL1        0.0000
      6 H          -0.8922   -2.3965    8.1622 H       1  UNL1        0.0000
      7 C          -2.1374   -2.7827    6.4794 C.ar    1  UNL1        0.0000
      8 H          -2.6172   -3.6377    6.9323 H       1  UNL1        0.0000
      9 C          -2.5030   -2.3648    5.2149 C.ar    1  UNL1        0.0000
     10 H          -3.2781   -2.9007    4.6869 H       1  UNL1        0.0000
     11 C          -1.8938   -1.2744    4.6130 C.ar    1  UNL1        0.0000
     12 C           0.5119   -0.2380    7.3894 C.3     1  UNL1        0.0000
     13 H           0.9938    0.4741    6.7165 H       1  UNL1        0.0000
     14 C          -0.1970    0.5512    8.4924 C.3     1  UNL1        0.0000
     15 H          -0.6912   -0.1219    9.1896 H       1  UNL1        0.0000
     16 H          -0.9473    1.2060    8.0576 H       1  UNL1        0.0000
     17 H           0.5158    1.1581    9.0468 H       1  UNL1        0.0000
     18 C           1.5946   -1.1405    7.9814 C.3     1  UNL1        0.0000
     19 H           1.1842   -1.8122    8.7313 H       1  UNL1        0.0000
     20 H           2.3630   -0.5341    8.4570 H       1  UNL1        0.0000
     21 H           2.0622   -1.7401    7.2041 H       1  UNL1        0.0000
     22 C          -2.3660   -0.8194    3.2539 C.3     1  UNL1        0.0000
     23 H          -1.7366    0.0220    2.9333 H       1  UNL1        0.0000
     24 C          -3.8050   -0.3117    3.3655 C.3     1  UNL1        0.0000
     25 H          -4.4499   -1.0626    3.8163 H       1  UNL1        0.0000
     26 H          -4.1989   -0.0641    2.3848 H       1  UNL1        0.0000
     27 H          -3.8257    0.5839    3.9836 H       1  UNL1        0.0000
     28 C          -2.2496   -1.9328    2.2119 C.3     1  UNL1        0.0000
     29 H          -1.2316   -2.3143    2.1783 H       1  UNL1        0.0000
     30 H          -2.5069   -1.5535    1.2250 H       1  UNL1        0.0000
     31 H          -2.9169   -2.7599    2.4431 H       1  UNL1        0.0000
     32 C           1.6691   -1.7606    3.9696 C.3     1  UNL1        0.0000
     33 H           2.0037   -2.0268    4.9662 H       1  UNL1        0.0000
     34 H           2.4489   -2.0494    3.2722 H       1  UNL1        0.0000
     35 H           0.7895   -2.3601    3.7576 H       1  UNL1        0.0000
     36 C           2.8192    1.0554    4.4562 C.3     1  UNL1        0.0000
     37 H           2.7213    2.1254    4.3177 H       1  UNL1        0.0000
     38 H           3.6900    0.7340    3.8937 H       1  UNL1        0.0000
     39 H           3.0266    0.8739    5.5058 H       1  UNL1        0.0000
     40 C           0.9873    0.5207    1.9882 C.3     1  UNL1        0.0000
     41 H           0.6371   -0.3460    1.4364 H       1  UNL1        0.0000
     42 H           1.8999    0.8622    1.5123 H       1  UNL1        0.0000
     43 H           0.2432    1.3053    1.8887 H       1  UNL1        0.0000
@<TRIPOS>BOND
     1    30    28    1
     2    41    40    1
     3    42    40    1
     4    43    40    1
     5    40     2    1
     6    29    28    1
     7    28    31    1
     8    28    22    1
     9    26    24    1
    10    23    22    1
    11    22    24    1
    12    22    11    1
    13    34    32    1
    14    24    25    1
    15    24    27    1
    16    35    32    1
    17     2    32    1
    18     2    36    1
    19     2     1    1
    20    38    36    1
    21    32    33    1
    22    37    36    1
    23    36    39    1
    24    11     9   ar
    25    11     3   ar
    26    10     9    1
    27     1     3    1
    28     9     7   ar
    29     3     4   ar
    30     7     8    1
    31     7     5   ar
    32     4     5   ar
    33     4    12    1
    34    13    12    1
    35     5     6    1
    36    21    18    1
    37    12    18    1
    38    12    14    1
    39    18    20    1
    40    18    19    1
    41    16    14    1
    42    14    17    1
    43    14    15    1
