@<TRIPOS>MOLECULE
1
 21 20 0 0 0
SMALL
GASTEIGER

@<TRIPOS>ATOM
      1 N           3.6366    6.0408   -0.8992 N.3     1  UNL1       -0.2348
      2 C           5.6994    4.8723   -0.1164 C.3     1  UNL1       -0.0484
      3 C           5.0792    6.1063   -0.7908 C.3     1  UNL1        0.0200
      4 C           5.7467    6.3738   -2.1503 C.3     1  UNL1       -0.0484
      5 C           2.2411    4.0461   -0.7515 C.3     1  UNL1       -0.0484
      6 C           3.1051    4.9253   -1.6618 C.3     1  UNL1        0.0200
      7 C           2.2616    5.4433   -2.8299 C.3     1  UNL1       -0.0484
      8 H           5.2111    4.6858    0.8386 H       1  UNL1        0.0245
      9 H           6.7594    5.0429    0.0620 H       1  UNL1        0.0245
     10 H           5.5964    3.9855   -0.7378 H       1  UNL1        0.0245
     11 H           5.3097    6.9711   -0.1435 H       1  UNL1        0.0471
     12 H           5.2941    7.2481   -2.6178 H       1  UNL1        0.0245
     13 H           5.6271    5.5240   -2.8189 H       1  UNL1        0.0245
     14 H           6.8110    6.5570   -2.0162 H       1  UNL1        0.0245
     15 H           2.8388    3.6221    0.0532 H       1  UNL1        0.0245
     16 H           1.7931    3.2349   -1.3202 H       1  UNL1        0.0245
     17 H           1.4611    4.6702   -0.3199 H       1  UNL1        0.0245
     18 H           3.9239    4.3135   -2.0687 H       1  UNL1        0.0471
     19 H           2.8757    6.0300   -3.5110 H       1  UNL1        0.0245
     20 H           1.4738    6.0736   -2.4215 H       1  UNL1        0.0245
     21 H           1.8221    4.6136   -3.3781 H       1  UNL1        0.0245
@<TRIPOS>BOND
     1    19     7    1
     2    21     7    1
     3     7    20    1
     4     7     6    1
     5    13     4    1
     6    12     4    1
     7     4    14    1
     8     4     3    1
     9    18     6    1
    10     6     1    1
    11     6     5    1
    12    16     5    1
    13     1     3    1
    14     3    11    1
    15     3     2    1
    16     5    17    1
    17     5    15    1
    18    10     2    1
    19     2     9    1
    20     2     8    1
