@<TRIPOS>MOLECULE
3
 27 26 0 0 0
SMALL
GASTEIGER

@<TRIPOS>ATOM
      1 SI          7.5412   -3.7152    1.8877 Si      1  UNL1        0.0000
      2 SI          9.8972   -3.6057    3.7784 Si      1  UNL1        0.0000
      3 N           8.7013   -2.8348    2.8075 N.3     1  UNL1        0.0000
      4 C           8.2514   -5.0004    0.6555 C.3     1  UNL1        0.0000
      5 H           9.0513   -4.5914    0.0488 H       1  UNL1        0.0000
      6 H           7.4795   -5.3575   -0.0193 H       1  UNL1        0.0000
      7 H           8.6429   -5.8621    1.1856 H       1  UNL1        0.0000
      8 C           6.5111   -2.4861    0.8327 C.3     1  UNL1        0.0000
      9 H           6.1302   -1.6410    1.4094 H       1  UNL1        0.0000
     10 H           5.6504   -2.9901    0.4025 H       1  UNL1        0.0000
     11 H           7.0955   -2.0916    0.0071 H       1  UNL1        0.0000
     12 C           6.2602   -4.7244    2.9062 C.3     1  UNL1        0.0000
     13 H           6.7415   -5.2625    3.7142 H       1  UNL1        0.0000
     14 H           5.7664   -5.4577    2.2760 H       1  UNL1        0.0000
     15 H           5.4860   -4.0995    3.3388 H       1  UNL1        0.0000
     16 C           9.2388   -4.8124    5.1147 C.3     1  UNL1        0.0000
     17 H           8.4504   -4.3724    5.7152 H       1  UNL1        0.0000
     18 H          10.0339   -5.1135    5.7899 H       1  UNL1        0.0000
     19 H           8.8449   -5.7130    4.6557 H       1  UNL1        0.0000
     20 C          11.1962   -4.6545    2.8269 C.3     1  UNL1        0.0000
     21 H          10.7128   -5.3395    2.1407 H       1  UNL1        0.0000
     22 H          11.7867   -5.2483    3.5179 H       1  UNL1        0.0000
     23 H          11.8871   -4.0465    2.2529 H       1  UNL1        0.0000
     24 C          10.8987   -2.2674    4.7233 C.3     1  UNL1        0.0000
     25 H          11.2332   -1.4488    4.0834 H       1  UNL1        0.0000
     26 H          11.7876   -2.7070    5.1665 H       1  UNL1        0.0000
     27 H          10.3160   -1.8420    5.5348 H       1  UNL1        0.0000
@<TRIPOS>BOND
     1     6     4    1
     2    11     8    1
     3     5     4    1
     4    10     8    1
     5     4     7    1
     6     4     1    1
     7     8     9    1
     8     8     1    1
     9     1     3    1
    10     1    12    1
    11    21    20    1
    12    23    20    1
    13    14    12    1
    14     3     2    1
    15    20    22    1
    16    20     2    1
    17    12    15    1
    18    12    13    1
    19     2    24    1
    20     2    16    1
    21    25    24    1
    22    19    16    1
    23    24    26    1
    24    24    27    1
    25    16    17    1
    26    16    18    1
