@<TRIPOS>MOLECULE
2
 36 36 0 0 0
SMALL
GASTEIGER

@<TRIPOS>ATOM
      1 N          -0.3586    2.2631    5.8301 N.3     1  UNL1       -0.3005
      2 N           2.6881    1.7113    5.6463 N.3     1  UNL1       -0.3023
      3 N           0.8606    0.0157    4.3939 N.3     1  UNL1       -0.3023
      4 C          -0.6065    3.4539    6.6472 C.3     1  UNL1       -0.0124
      5 C          -1.6711    1.8541    5.3283 C.3     1  UNL1       -0.0124
      6 C           0.3643    1.1971    6.5657 C.3     1  UNL1        0.0438
      7 C           1.8200    1.6447    6.8234 C.3     1  UNL1        0.0181
      8 C           3.8413    2.5602    5.9628 C.3     1  UNL1       -0.0126
      9 C           3.1696    0.3724    5.2973 C.3     1  UNL1        0.0114
     10 C           2.2681   -0.3648    4.3023 C.3     1  UNL1        0.0114
     11 C           0.1175   -0.8375    3.4722 C.3     1  UNL1       -0.0126
     12 C           0.3639   -0.1236    5.7633 C.3     1  UNL1        0.0181
     13 C          -0.2597    0.8809    7.9420 C.3     1  UNL1       -0.0442
     14 H          -0.9873    4.2378    5.9950 H       1  UNL1        0.0391
     15 H           0.2999    3.8274    7.1120 H       1  UNL1        0.0391
     16 H          -1.3542    3.2688    7.4302 H       1  UNL1        0.0391
     17 H          -2.3650    1.5858    6.1385 H       1  UNL1        0.0391
     18 H          -1.5903    1.0239    4.6390 H       1  UNL1        0.0391
     19 H          -2.0987    2.6914    4.7788 H       1  UNL1        0.0391
     20 H           1.8031    2.6339    7.2794 H       1  UNL1        0.0445
     21 H           2.2530    0.9579    7.5721 H       1  UNL1        0.0445
     22 H           3.5064    3.5651    6.2102 H       1  UNL1        0.0391
     23 H           4.4889    2.6330    5.0915 H       1  UNL1        0.0391
     24 H           4.4199    2.1574    6.8071 H       1  UNL1        0.0391
     25 H           3.2977   -0.2303    6.2121 H       1  UNL1        0.0439
     26 H           4.1561    0.4588    4.8376 H       1  UNL1        0.0439
     27 H           2.5899   -0.1379    3.2827 H       1  UNL1        0.0439
     28 H           2.3881   -1.4516    4.4700 H       1  UNL1        0.0439
     29 H           0.2185   -1.9030    3.7300 H       1  UNL1        0.0391
     30 H           0.4993   -0.6862    2.4648 H       1  UNL1        0.0391
     31 H          -0.9399   -0.5822    3.4770 H       1  UNL1        0.0391
     32 H           0.9651   -0.8573    6.3201 H       1  UNL1        0.0445
     33 H          -0.6544   -0.5164    5.7458 H       1  UNL1        0.0445
     34 H          -0.1117    1.7013    8.6386 H       1  UNL1        0.0248
     35 H           0.2026   -0.0071    8.3661 H       1  UNL1        0.0248
     36 H          -1.3253    0.6875    7.8504 H       1  UNL1        0.0248
@<TRIPOS>BOND
     1    30    11    1
     2    27    10    1
     3    11    31    1
     4    11    29    1
     5    11     3    1
     6    10     3    1
     7    10    28    1
     8    10     9    1
     9     3    12    1
    10    18     5    1
    11    19     5    1
    12    26     9    1
    13    23     8    1
    14     9     2    1
    15     9    25    1
    16     5     1    1
    17     5    17    1
    18     2     8    1
    19     2     7    1
    20    33    12    1
    21    12    32    1
    22    12     6    1
    23     1     6    1
    24     1     4    1
    25     8    22    1
    26     8    24    1
    27    14     4    1
    28     6     7    1
    29     6    13    1
    30     4    15    1
    31     4    16    1
    32     7    20    1
    33     7    21    1
    34    36    13    1
    35    13    35    1
    36    13    34    1
