@<TRIPOS>MOLECULE
1
 11 11 0 0 0
SMALL
GASTEIGER

@<TRIPOS>ATOM
      1 N           1.8763    4.9237   10.5173 N.pl3   1  UNL1       -0.2487
      2 C           1.3129    5.2157   11.7044 C.3     1  UNL1        0.0840
      3 H           0.2353    5.1180   11.7668 H       1  UNL1        0.0584
      4 C           2.0328    5.6203   12.8089 C.2     1  UNL1       -0.0600
      5 H           1.5151    5.8372   13.7298 H       1  UNL1        0.0592
      6 C           3.4132    5.7448   12.7196 C.2     1  UNL1       -0.0626
      7 H           4.0028    6.0601   13.5653 H       1  UNL1        0.0615
      8 C           4.0015    5.4608   11.4958 C.2     1  UNL1       -0.0466
      9 H           5.0679    5.5522   11.3593 H       1  UNL1        0.0630
     10 C           3.2112    5.0688   10.4342 C.2     1  UNL1        0.0121
     11 H           3.6563    4.8880    9.4642 H       1  UNL1        0.0797
@<TRIPOS>BOND
     1    11    10    1
     2    10     1    1
     3    10     8    2
     4     1     2    1
     5     9     8    1
     6     8     6    1
     7     2     3    1
     8     2     4    1
     9     6     4    2
    10     6     7    1
    11     4     5    1
