@<TRIPOS>MOLECULE
3
 27 26 0 0 0
SMALL
GASTEIGER

@<TRIPOS>ATOM
      1 SI          4.2118    1.7060    6.7763 Si      1  UNL1        0.0000
      2 SI          7.0057    3.0644    7.0859 Si      1  UNL1        0.0000
      3 N           5.9077    1.8443    6.5976 N.3     1  UNL1        0.0000
      4 C           3.4931    1.0423    5.1273 C.3     1  UNL1        0.0000
      5 H           4.1476    1.3139    4.3026 H       1  UNL1        0.0000
      6 H           2.5071    1.4421    4.9195 H       1  UNL1        0.0000
      7 H           3.4081   -0.0378    5.1502 H       1  UNL1        0.0000
      8 C           3.7695    0.4201    8.1341 C.3     1  UNL1        0.0000
      9 H           4.0257   -0.5885    7.8289 H       1  UNL1        0.0000
     10 H           2.7064    0.4351    8.3515 H       1  UNL1        0.0000
     11 H           4.2967    0.6311    9.0580 H       1  UNL1        0.0000
     12 C           3.2646    3.2978    7.2532 C.3     1  UNL1        0.0000
     13 H           3.4455    3.5511    8.2913 H       1  UNL1        0.0000
     14 H           2.1935    3.1708    7.1294 H       1  UNL1        0.0000
     15 H           3.5690    4.1451    6.6500 H       1  UNL1        0.0000
     16 C           8.7052    2.2685    7.4886 C.3     1  UNL1        0.0000
     17 H           8.6935    1.7676    8.4506 H       1  UNL1        0.0000
     18 H           9.4787    3.0281    7.5297 H       1  UNL1        0.0000
     19 H           8.9995    1.5425    6.7408 H       1  UNL1        0.0000
     20 C           6.4507    3.9433    8.6901 C.3     1  UNL1        0.0000
     21 H           5.6657    4.6644    8.4972 H       1  UNL1        0.0000
     22 H           7.2788    4.4710    9.1514 H       1  UNL1        0.0000
     23 H           6.0704    3.2273    9.4098 H       1  UNL1        0.0000
     24 C           7.3262    4.3881    5.7435 C.3     1  UNL1        0.0000
     25 H           7.3603    3.9182    4.7649 H       1  UNL1        0.0000
     26 H           8.2657    4.9077    5.9012 H       1  UNL1        0.0000
     27 H           6.5409    5.1357    5.7224 H       1  UNL1        0.0000
@<TRIPOS>BOND
     1     5     4    1
     2    25    24    1
     3     6     4    1
     4     4     7    1
     5     4     1    1
     6    27    24    1
     7    24    26    1
     8    24     2    1
     9     3     1    1
    10     3     2    1
    11    15    12    1
    12    19    16    1
    13     1    12    1
    14     1     8    1
    15     2    16    1
    16     2    20    1
    17    14    12    1
    18    12    13    1
    19    16    18    1
    20    16    17    1
    21     9     8    1
    22     8    10    1
    23     8    11    1
    24    21    20    1
    25    20    22    1
    26    20    23    1
