@<TRIPOS>MOLECULE
3
 27 26 0 0 0
SMALL
GASTEIGER

@<TRIPOS>ATOM
      1 SI          8.3580    2.0175    2.5800 Si      1  UNL1        0.0000
      2 SI          5.5145    3.2536    2.3007 Si      1  UNL1        0.0000
      3 N           6.7342    2.3100    3.0707 N.3     1  UNL1        0.0000
      4 C           8.9653    0.7442    3.8655 C.3     1  UNL1        0.0000
      5 H           8.5471    1.0009    4.8389 H       1  UNL1        0.0000
      6 H          10.0450    0.7342    3.9531 H       1  UNL1        0.0000
      7 H           8.6436   -0.2615    3.6206 H       1  UNL1        0.0000
      8 C           8.4377    1.2607    0.8222 C.3     1  UNL1        0.0000
      9 H           7.8313    0.3649    0.7403 H       1  UNL1        0.0000
     10 H           9.4550    0.9980    0.5523 H       1  UNL1        0.0000
     11 H           8.0744    1.9682    0.0853 H       1  UNL1        0.0000
     12 C           9.5310    3.5265    2.6084 C.3     1  UNL1        0.0000
     13 H           9.1924    4.2984    1.9264 H       1  UNL1        0.0000
     14 H          10.5368    3.2450    2.3120 H       1  UNL1        0.0000
     15 H           9.5884    3.9630    3.5996 H       1  UNL1        0.0000
     16 C           4.3778    2.1798    1.1879 C.3     1  UNL1        0.0000
     17 H           4.9553    1.5548    0.5143 H       1  UNL1        0.0000
     18 H           3.7338    2.8075    0.5802 H       1  UNL1        0.0000
     19 H           3.7376    1.5311    1.7762 H       1  UNL1        0.0000
     20 C           6.2459    4.6257    1.1944 C.3     1  UNL1        0.0000
     21 H           6.8633    5.3050    1.7720 H       1  UNL1        0.0000
     22 H           5.4599    5.2100    0.7269 H       1  UNL1        0.0000
     23 H           6.8622    4.2088    0.4055 H       1  UNL1        0.0000
     24 C           4.4752    4.0367    3.6943 C.3     1  UNL1        0.0000
     25 H           4.7601    3.6059    4.6491 H       1  UNL1        0.0000
     26 H           3.4135    3.8686    3.5525 H       1  UNL1        0.0000
     27 H           4.6297    5.1091    3.7505 H       1  UNL1        0.0000
@<TRIPOS>BOND
     1    11     8    1
     2    23    20    1
     3    17    16    1
     4    10     8    1
     5    18    16    1
     6    22    20    1
     7     9     8    1
     8     8     1    1
     9    16    19    1
    10    16     2    1
    11    20    21    1
    12    20     2    1
    13    13    12    1
    14     2     3    1
    15     2    24    1
    16    14    12    1
    17     1    12    1
    18     1     3    1
    19     1     4    1
    20    12    15    1
    21    26    24    1
    22     7     4    1
    23    24    27    1
    24    24    25    1
    25     4     6    1
    26     4     5    1
