@<TRIPOS>MOLECULE
1
 9 8 0 0 0
SMALL
GASTEIGER

@<TRIPOS>ATOM
      1 N           0.7960   -0.7193   12.1282 N.3     1  UNL1       -0.2469
      2 C           0.8508   -0.3271   13.5215 C.3     1  UNL1        0.0021
      3 H           0.9736    0.7686   13.6329 H       1  UNL1        0.0405
      4 H           1.7113   -0.7908   14.0424 H       1  UNL1        0.0405
      5 H          -0.0656   -0.6240   14.0290 H       1  UNL1        0.0405
      6 C           1.9708   -0.2112   11.4514 C.3     1  UNL1        0.0021
      7 H           2.1371    0.8586   11.6819 H       1  UNL1        0.0405
      8 H           1.8615   -0.3160   10.3717 H       1  UNL1        0.0405
      9 H           2.8905   -0.7388   11.7728 H       1  UNL1        0.0405
@<TRIPOS>BOND
     1     8     6    1
     2     6     7    1
     3     6     9    1
     4     6     1    1
     5     1     2    1
     6     2     3    1
     7     2     5    1
     8     2     4    1
