@<TRIPOS>MOLECULE
1
 31 31 0 0 0
SMALL
GASTEIGER

@<TRIPOS>ATOM
      1 N           6.4035    8.2443   -4.7314 N.pl3   1  UNL1       -0.2449
      2 C           6.5222    8.8222   -3.4524 C.ar    1  UNL1        0.0488
      3 C           6.3978   10.2009   -3.2638 C.ar    1  UNL1       -0.0362
      4 H           6.1845   10.8299   -4.1162 H       1  UNL1        0.0639
      5 C           6.5401   10.7633   -2.0057 C.ar    1  UNL1       -0.0484
      6 C           6.7987    9.9371   -0.9163 C.ar    1  UNL1       -0.0558
      7 H           6.9083   10.3762    0.0652 H       1  UNL1        0.0623
      8 C           6.9073    8.5639   -1.0716 C.ar    1  UNL1       -0.0484
      9 C           6.7820    8.0203   -2.3429 C.ar    1  UNL1       -0.0362
     10 H           6.8799    6.9531   -2.4829 H       1  UNL1        0.0639
     11 C           7.6731    8.1094   -5.4519 C.3     1  UNL1        0.0453
     12 C           8.3827    9.4673   -5.6134 C.3     1  UNL1       -0.0424
     13 H           7.7527   10.1791   -6.1413 H       1  UNL1        0.0251
     14 H           9.3017    9.3356   -6.1805 H       1  UNL1        0.0251
     15 H           8.6331    9.8842   -4.6408 H       1  UNL1        0.0251
     16 C           8.6407    7.1632   -4.7175 C.3     1  UNL1       -0.0424
     17 H           8.9214    7.5781   -3.7522 H       1  UNL1        0.0251
     18 H           9.5441    7.0273   -5.3086 H       1  UNL1        0.0251
     19 H           8.1741    6.1922   -4.5686 H       1  UNL1        0.0251
     20 C           7.3855    7.5307   -6.8393 C.3     1  UNL1       -0.0424
     21 H           6.8731    6.5702   -6.7508 H       1  UNL1        0.0251
     22 H           8.3179    7.3726   -7.3789 H       1  UNL1        0.0251
     23 H           6.7647    8.2160   -7.4137 H       1  UNL1        0.0251
     24 C           6.4276   12.2445   -1.7988 C.3     1  UNL1       -0.0396
     25 H           5.5632   12.4723   -1.1757 H       1  UNL1        0.0278
     26 H           6.3179   12.7650   -2.7461 H       1  UNL1        0.0278
     27 H           7.3125   12.6247   -1.2898 H       1  UNL1        0.0278
     28 C           7.1363    7.6665    0.1082 C.3     1  UNL1       -0.0396
     29 H           7.8791    6.9050   -0.1226 H       1  UNL1        0.0278
     30 H           6.2071    7.1598    0.3710 H       1  UNL1        0.0278
     31 H           7.4728    8.2348    0.9718 H       1  UNL1        0.0278
@<TRIPOS>BOND
     1    23    20    1
     2    22    20    1
     3    20    21    1
     4    20    11    1
     5    14    12    1
     6    13    12    1
     7    12    11    1
     8    12    15    1
     9    11     1    1
    10    11    16    1
    11    18    16    1
    12     1     2    1
    13    16    19    1
    14    16    17    1
    15     4     3    1
    16     2     3   ar
    17     2     9   ar
    18     3     5   ar
    19    26    24    1
    20    10     9    1
    21     9     8   ar
    22     5    24    1
    23     5     6   ar
    24    24    27    1
    25    24    25    1
    26     8     6   ar
    27     8    28    1
    28     6     7    1
    29    29    28    1
    30    28    30    1
    31    28    31    1
