@<TRIPOS>MOLECULE
1
 31 31 0 0 0
SMALL
GASTEIGER

@<TRIPOS>ATOM
      1 N           4.1510    8.1845   -7.0823 N.pl3   1  UNL1       -0.2449
      2 C           3.4526    7.1376   -7.6976 C.ar    1  UNL1        0.0488
      3 C           2.2493    6.7077   -7.1224 C.ar    1  UNL1       -0.0362
      4 H           1.8867    7.2451   -6.2497 H       1  UNL1        0.0639
      5 C           1.5208    5.6672   -7.6755 C.ar    1  UNL1       -0.0484
      6 C           1.9847    5.0642   -8.8403 C.ar    1  UNL1       -0.0558
      7 H           1.4115    4.2654   -9.2895 H       1  UNL1        0.0623
      8 C           3.1650    5.4791   -9.4421 C.ar    1  UNL1       -0.0484
      9 C           3.8975    6.5061   -8.8642 C.ar    1  UNL1       -0.0362
     10 H           4.8379    6.8014   -9.3071 H       1  UNL1        0.0639
     11 C           4.0425    9.4858   -7.7430 C.3     1  UNL1        0.0453
     12 C           4.7184    9.5349   -9.1262 C.3     1  UNL1       -0.0424
     13 H           5.7528    9.1993   -9.0744 H       1  UNL1        0.0251
     14 H           4.7118   10.5590   -9.4934 H       1  UNL1        0.0251
     15 H           4.1818    8.9168   -9.8415 H       1  UNL1        0.0251
     16 C           2.5543    9.8363   -7.9152 C.3     1  UNL1       -0.0424
     17 H           2.0624    9.1122   -8.5629 H       1  UNL1        0.0251
     18 H           2.4493   10.8227   -8.3595 H       1  UNL1        0.0251
     19 H           2.0673    9.8321   -6.9417 H       1  UNL1        0.0251
     20 C           4.6911   10.5299   -6.8312 C.3     1  UNL1       -0.0424
     21 H           4.2140   10.5008   -5.8513 H       1  UNL1        0.0251
     22 H           4.5713   11.5253   -7.2558 H       1  UNL1        0.0251
     23 H           5.7545   10.3250   -6.7181 H       1  UNL1        0.0251
     24 C           0.2387    5.2021   -7.0507 C.3     1  UNL1       -0.0396
     25 H           0.3869    4.2405   -6.5577 H       1  UNL1        0.0278
     26 H          -0.5304    5.0686   -7.8097 H       1  UNL1        0.0278
     27 H          -0.1159    5.9167   -6.3123 H       1  UNL1        0.0278
     28 C           3.6232    4.8433  -10.7218 C.3     1  UNL1       -0.0396
     29 H           3.4269    3.7728  -10.7175 H       1  UNL1        0.0278
     30 H           4.6857    5.0082  -10.8839 H       1  UNL1        0.0278
     31 H           3.0811    5.2761  -11.5635 H       1  UNL1        0.0278
@<TRIPOS>BOND
     1    31    28    1
     2    30    28    1
     3    28    29    1
     4    28     8    1
     5    15    12    1
     6    14    12    1
     7     8     9   ar
     8     8     6   ar
     9    10     9    1
    10     7     6    1
    11    12    13    1
    12    12    11    1
    13     9     2   ar
    14     6     5   ar
    15    17    16    1
    16    18    16    1
    17    16    11    1
    18    16    19    1
    19    26    24    1
    20    11     1    1
    21    11    20    1
    22     2     3   ar
    23     2     1    1
    24     5     3   ar
    25     5    24    1
    26    22    20    1
    27     3     4    1
    28    24    25    1
    29    24    27    1
    30    20    23    1
    31    20    21    1
