@<TRIPOS>MOLECULE
1
 31 31 0 0 0
SMALL
GASTEIGER

@<TRIPOS>ATOM
      1 N           4.4550    5.8553   -4.5539 N.pl3   1  UNL1       -0.2449
      2 C           5.4330    5.0060   -5.0684 C.ar    1  UNL1        0.0488
      3 C           6.4669    4.4798   -4.2757 C.ar    1  UNL1       -0.0362
      4 H           6.5100    4.7329   -3.2253 H       1  UNL1        0.0639
      5 C           7.4338    3.6457   -4.8089 C.ar    1  UNL1       -0.0484
      6 C           7.3853    3.3233   -6.1608 C.ar    1  UNL1       -0.0558
      7 H           8.1402    2.6728   -6.5784 H       1  UNL1        0.0623
      8 C           6.3693    3.8100   -6.9694 C.ar    1  UNL1       -0.0484
      9 C           5.3992    4.6356   -6.4166 C.ar    1  UNL1       -0.0362
     10 H           4.5681    4.9651   -7.0262 H       1  UNL1        0.0639
     11 C           3.6367    5.3354   -3.4483 C.3     1  UNL1        0.0453
     12 C           4.1049    5.8684   -2.0871 C.3     1  UNL1       -0.0424
     13 H           5.0398    5.4066   -1.7788 H       1  UNL1        0.0251
     14 H           3.3585    5.6590   -1.3240 H       1  UNL1        0.0251
     15 H           4.2403    6.9459   -2.1568 H       1  UNL1        0.0251
     16 C           2.1931    5.8021   -3.6845 C.3     1  UNL1       -0.0424
     17 H           2.1511    6.8878   -3.7159 H       1  UNL1        0.0251
     18 H           1.5502    5.4554   -2.8780 H       1  UNL1        0.0251
     19 H           1.8263    5.3930   -4.6229 H       1  UNL1        0.0251
     20 C           3.6088    3.7974   -3.4276 C.3     1  UNL1       -0.0424
     21 H           3.3485    3.4119   -4.4120 H       1  UNL1        0.0251
     22 H           2.8603    3.4627   -2.7131 H       1  UNL1        0.0251
     23 H           4.5665    3.3734   -3.1388 H       1  UNL1        0.0251
     24 C           8.5381    3.1015   -3.9509 C.3     1  UNL1       -0.0396
     25 H           9.5020    3.4796   -4.2910 H       1  UNL1        0.0278
     26 H           8.5669    2.0146   -4.0132 H       1  UNL1        0.0278
     27 H           8.4039    3.3868   -2.9103 H       1  UNL1        0.0278
     28 C           6.3088    3.4534   -8.4244 C.3     1  UNL1       -0.0396
     29 H           5.2765    3.3471   -8.7485 H       1  UNL1        0.0278
     30 H           6.8425    2.5261   -8.6207 H       1  UNL1        0.0278
     31 H           6.7691    4.2426   -9.0205 H       1  UNL1        0.0278
@<TRIPOS>BOND
     1    31    28    1
     2    29    28    1
     3    30    28    1
     4    28     8    1
     5    10     9    1
     6     8     9   ar
     7     8     6   ar
     8     7     6    1
     9     9     2   ar
    10     6     5   ar
    11     2     1    1
    12     2     3   ar
    13     5     3   ar
    14     5    24    1
    15    19    16    1
    16     1    11    1
    17    21    20    1
    18    25    24    1
    19     3     4    1
    20    26    24    1
    21    24    27    1
    22    17    16    1
    23    16    11    1
    24    16    18    1
    25    11    20    1
    26    11    12    1
    27    20    23    1
    28    20    22    1
    29    15    12    1
    30    12    13    1
    31    12    14    1
