@<TRIPOS>MOLECULE
2
 35 36 0 0 0
SMALL
GASTEIGER

@<TRIPOS>ATOM
      1 AS          9.4666    4.5560    6.0553 As      1  UNL1        0.0000
      2 N           7.2222    5.3723    7.5852 N.pl3   1  UNL1        0.0000
      3 C           8.8755    9.2301    7.0972 C.ar    1  UNL1        0.0000
      4 C           9.8307    2.6484    5.7968 C.ar    1  UNL1        0.0000
      5 C           9.6765    1.7040    6.8092 C.ar    1  UNL1        0.0000
      6 H           9.3316    2.0189    7.7863 H       1  UNL1        0.0000
      7 C           7.7696    6.6679    7.4066 C.ar    1  UNL1        0.0000
      8 C           9.2342    8.4264    8.1698 C.ar    1  UNL1        0.0000
      9 H           9.9457    8.7964    8.8948 H       1  UNL1        0.0000
     10 C           7.4204    7.4603    6.3049 C.ar    1  UNL1        0.0000
     11 C           6.4587    6.9474    5.2781 C.3     1  UNL1        0.0000
     12 H           6.2597    7.7076    4.5266 H       1  UNL1        0.0000
     13 H           5.5200    6.6663    5.7611 H       1  UNL1        0.0000
     14 H           6.8784    6.0730    4.7786 H       1  UNL1        0.0000
     15 C           9.1064    6.3020    9.4934 C.3     1  UNL1        0.0000
     16 H           9.5925    6.8974   10.2623 H       1  UNL1        0.0000
     17 H           9.8101    5.5344    9.1623 H       1  UNL1        0.0000
     18 H           8.2263    5.8051    9.9116 H       1  UNL1        0.0000
     19 C           7.9715    8.7267    6.1753 C.ar    1  UNL1        0.0000
     20 H           7.6937    9.3329    5.3239 H       1  UNL1        0.0000
     21 C           9.4760   10.5937    6.9316 C.3     1  UNL1        0.0000
     22 H           8.8979   11.1907    6.2306 H       1  UNL1        0.0000
     23 H          10.4935   10.5087    6.5498 H       1  UNL1        0.0000
     24 H           9.5197   11.1148    7.8862 H       1  UNL1        0.0000
     25 C           7.9701    4.3663    7.0715 C.3     1  UNL1        0.0000
     26 C          10.3195    2.2024    4.5681 C.ar    1  UNL1        0.0000
     27 H          10.4644    2.9260    3.7725 H       1  UNL1        0.0000
     28 C           8.7047    7.1574    8.3317 C.ar    1  UNL1        0.0000
     29 C           9.9621    0.3683    6.5957 C.ar    1  UNL1        0.0000
     30 H           9.8279   -0.3455    7.3976 H       1  UNL1        0.0000
     31 C          10.6094    0.8696    4.3486 C.ar    1  UNL1        0.0000
     32 H          10.9785    0.5478    3.3843 H       1  UNL1        0.0000
     33 C          10.4254   -0.0569    5.3620 C.ar    1  UNL1        0.0000
     34 H          10.6492   -1.1006    5.1942 H       1  UNL1        0.0000
     35 H           7.5471    3.3732    7.2540 H       1  UNL1        0.0000
@<TRIPOS>BOND
     1    32    31    1
     2    27    26    1
     3    31    26   ar
     4    31    33   ar
     5    12    11    1
     6    26     4   ar
     7    14    11    1
     8    34    33    1
     9    11    13    1
    10    11    10    1
    11    20    19    1
    12    33    29   ar
    13     4     1    1
    14     4     5   ar
    15     1    25    1
    16    19    10   ar
    17    19     3   ar
    18    22    21    1
    19    10     7   ar
    20    23    21    1
    21    29     5   ar
    22    29    30    1
    23     5     6    1
    24    21     3    1
    25    21    24    1
    26    25    35    1
    27    25     2    1
    28     3     8   ar
    29     7     2    1
    30     7    28   ar
    31     8    28   ar
    32     8     9    1
    33    28    15    1
    34    17    15    1
    35    15    18    1
    36    15    16    1
