@<TRIPOS>MOLECULE
1
 27 26 0 0 0
SMALL
GASTEIGER

@<TRIPOS>ATOM
      1 N           2.7650   14.1222   15.6217 N.3     1  UNL1        0.0000
      2 SI          3.8616   13.1401   14.7201 Si      1  UNL1        0.0000
      3 SI          1.4146   13.3762   16.4031 Si      1  UNL1        0.0000
      4 C           5.5589   14.0352   14.7669 C.3     1  UNL1        0.0000
      5 H           5.5116   15.0038   14.2657 H       1  UNL1        0.0000
      6 H           6.3166   13.4434   14.2616 H       1  UNL1        0.0000
      7 H           5.9017   14.1915   15.7882 H       1  UNL1        0.0000
      8 C           3.3192   12.9757   12.8857 C.3     1  UNL1        0.0000
      9 H           2.3738   12.4483   12.8147 H       1  UNL1        0.0000
     10 H           4.0447   12.4204   12.2991 H       1  UNL1        0.0000
     11 H           3.1872   13.9462   12.4144 H       1  UNL1        0.0000
     12 C           4.1855   11.3719   15.3573 C.3     1  UNL1        0.0000
     13 H           4.5483   11.3781   16.3789 H       1  UNL1        0.0000
     14 H           4.9265   10.8655   14.7469 H       1  UNL1        0.0000
     15 H           3.2787   10.7792   15.3309 H       1  UNL1        0.0000
     16 C           0.3678   12.2716   15.2409 C.3     1  UNL1        0.0000
     17 H          -0.0346   12.8260   14.3994 H       1  UNL1        0.0000
     18 H          -0.4683   11.8265   15.7706 H       1  UNL1        0.0000
     19 H           0.9703   11.4634   14.8409 H       1  UNL1        0.0000
     20 C           1.8861   12.2711   17.8962 C.3     1  UNL1        0.0000
     21 H           2.3590   11.3525   17.5699 H       1  UNL1        0.0000
     22 H           1.0024   11.9984   18.4651 H       1  UNL1        0.0000
     23 H           2.5711   12.7683   18.5747 H       1  UNL1        0.0000
     24 C           0.2362   14.7056   17.1114 C.3     1  UNL1        0.0000
     25 H           0.7261   15.3241   17.8561 H       1  UNL1        0.0000
     26 H          -0.6038   14.2211   17.5985 H       1  UNL1        0.0000
     27 H          -0.1681   15.3549   16.3428 H       1  UNL1        0.0000
@<TRIPOS>BOND
     1    10     8    1
     2    11     8    1
     3     9     8    1
     4     8     2    1
     5     6     4    1
     6     5     4    1
     7    17    16    1
     8     2     4    1
     9     2    12    1
    10     2     1    1
    11    14    12    1
    12     4     7    1
    13    19    16    1
    14    16    18    1
    15    16     3    1
    16    15    12    1
    17    12    13    1
    18     1     3    1
    19    27    24    1
    20     3    24    1
    21     3    20    1
    22    24    26    1
    23    24    25    1
    24    21    20    1
    25    20    22    1
    26    20    23    1
