@<TRIPOS>MOLECULE
2
 40 40 0 0 0
SMALL
GASTEIGER

@<TRIPOS>ATOM
      1 SI          2.0853    3.9411    8.7169 Si      1  UNL1        0.0000
      2 N           0.7818    2.9893    9.3882 N.pl3   1  UNL1        0.0000
      3 C           0.7549    2.8997   10.7995 C.ar    1  UNL1        0.0000
      4 C           1.5628    1.9638   11.4690 C.ar    1  UNL1        0.0000
      5 C           1.5656    1.9359   12.8556 C.ar    1  UNL1        0.0000
      6 H           2.1934    1.2238   13.3697 H       1  UNL1        0.0000
      7 C           0.7870    2.8049   13.5938 C.ar    1  UNL1        0.0000
      8 H           0.8031    2.7704   14.6731 H       1  UNL1        0.0000
      9 C          -0.0159    3.7147   12.9365 C.ar    1  UNL1        0.0000
     10 H          -0.6335    4.3881   13.5117 H       1  UNL1        0.0000
     11 C          -0.9524    4.7817   10.8788 C.3     1  UNL1        0.0000
     12 H          -0.7638    4.7471    9.7977 H       1  UNL1        0.0000
     13 C          -0.6954    6.2134   11.3513 C.3     1  UNL1        0.0000
     14 H          -1.3129    6.9100   10.7867 H       1  UNL1        0.0000
     15 H           0.3490    6.4804   11.2072 H       1  UNL1        0.0000
     16 H          -0.9344    6.3288   12.4054 H       1  UNL1        0.0000
     17 C          -2.4075    4.3745   11.1299 C.3     1  UNL1        0.0000
     18 H          -2.5486    3.3287   10.8553 H       1  UNL1        0.0000
     19 H          -3.0873    4.9961   10.5487 H       1  UNL1        0.0000
     20 H          -2.6587    4.4837   12.1827 H       1  UNL1        0.0000
     21 C           2.4320    0.9923   10.7061 C.3     1  UNL1        0.0000
     22 H           2.1784    1.0915    9.6448 H       1  UNL1        0.0000
     23 C           3.9143    1.3266   10.8921 C.3     1  UNL1        0.0000
     24 H           4.1908    1.2602   11.9420 H       1  UNL1        0.0000
     25 H           4.1284    2.3328   10.5415 H       1  UNL1        0.0000
     26 H           4.5296    0.6259   10.3310 H       1  UNL1        0.0000
     27 C           2.1572   -0.4524   11.1310 C.3     1  UNL1        0.0000
     28 H           1.1031   -0.6831   11.0000 H       1  UNL1        0.0000
     29 H           2.4196   -0.6119   12.1735 H       1  UNL1        0.0000
     30 H           2.7490   -1.1383   10.5271 H       1  UNL1        0.0000
     31 C           2.9685    4.9777   10.0513 C.3     1  UNL1        0.0000
     32 H           4.0014    5.1618    9.7739 H       1  UNL1        0.0000
     33 H           2.9625    4.4774   11.0146 H       1  UNL1        0.0000
     34 H           2.4927    5.9453   10.1816 H       1  UNL1        0.0000
     35 C           1.4549    5.1324    7.3690 C.3     1  UNL1        0.0000
     36 H           1.0417    4.5913    6.5229 H       1  UNL1        0.0000
     37 H           2.2766    5.7384    7.0024 H       1  UNL1        0.0000
     38 H           0.6916    5.8097    7.7431 H       1  UNL1        0.0000
     39 C          -0.0384    3.7829   11.5511 C.ar    1  UNL1        0.0000
     40 H           3.0643    3.0181    8.0767 H       1  UNL1        0.0000
@<TRIPOS>BOND
     1    36    35    1
     2    37    35    1
     3    35    38    1
     4    35     1    1
     5    40     1    1
     6     1     2    1
     7     1    31    1
     8     2     3    1
     9    22    21    1
    10    32    31    1
    11    12    11    1
    12    31    34    1
    13    31    33    1
    14    26    23    1
    15    30    27    1
    16    25    23    1
    17    19    17    1
    18    21    23    1
    19    21    27    1
    20    21     4    1
    21    14    13    1
    22     3     4   ar
    23     3    39   ar
    24    18    17    1
    25    11    17    1
    26    11    13    1
    27    11    39    1
    28    23    24    1
    29    28    27    1
    30    17    20    1
    31    27    29    1
    32    15    13    1
    33    13    16    1
    34     4     5   ar
    35    39     9   ar
    36     5     6    1
    37     5     7   ar
    38     9    10    1
    39     9     7   ar
    40     7     8    1
