@<TRIPOS>MOLECULE
1
 10 9 0 0 0
SMALL
GASTEIGER

@<TRIPOS>ATOM
      1 N          10.7740    2.2590    1.2083 N.3     1  UNL1       -0.3220
      2 H          11.4086    2.3020    2.0159 H       1  UNL1        0.1213
      3 C          11.3581    1.2861    0.2765 C.3     1  UNL1       -0.0161
      4 H          12.3993    1.5391    0.0312 H       1  UNL1        0.0388
      5 H          11.3284    0.2869    0.7174 H       1  UNL1        0.0388
      6 H          10.7869    1.2825   -0.6523 H       1  UNL1        0.0388
      7 C          10.8160    3.6075    0.6309 C.3     1  UNL1       -0.0161
      8 H          11.8403    3.8896    0.3530 H       1  UNL1        0.0388
      9 H          10.1971    3.6527   -0.2648 H       1  UNL1        0.0388
     10 H          10.4444    4.3254    1.3625 H       1  UNL1        0.0388
@<TRIPOS>BOND
     1     6     3    1
     2     9     7    1
     3     4     3    1
     4     3     5    1
     5     3     1    1
     6     8     7    1
     7     7     1    1
     8     7    10    1
     9     1     2    1
