@<TRIPOS>MOLECULE
2
 24 23 0 0 0
SMALL
GASTEIGER

@<TRIPOS>ATOM
      1 SI          0.8527   -6.8605    6.0018 Si      1  UNL1        0.0000
      2 N          -0.1909   -5.6175    5.3711 N.3     1  UNL1        0.0000
      3 C          -1.1057   -4.8756    6.2333 C.3     1  UNL1        0.0000
      4 C           2.0462   -6.2928    7.3851 C.3     1  UNL1        0.0000
      5 H           2.5712   -5.3875    7.0934 H       1  UNL1        0.0000
      6 H           2.7916   -7.0609    7.5642 H       1  UNL1        0.0000
      7 H           1.5448   -6.1046    8.3303 H       1  UNL1        0.0000
      8 C          -2.2796   -4.3303    5.3964 C.3     1  UNL1        0.0000
      9 H          -1.9234   -3.6791    4.5967 H       1  UNL1        0.0000
     10 H          -2.9453   -3.7536    6.0361 H       1  UNL1        0.0000
     11 H          -2.8452   -5.1585    4.9724 H       1  UNL1        0.0000
     12 C          -0.3574   -3.7058    6.9009 C.3     1  UNL1        0.0000
     13 H           0.3850   -4.0882    7.5967 H       1  UNL1        0.0000
     14 H          -1.0546   -3.0722    7.4451 H       1  UNL1        0.0000
     15 H           0.1545   -3.1021    6.1500 H       1  UNL1        0.0000
     16 C          -0.0519   -8.4333    6.6258 C.3     1  UNL1        0.0000
     17 H          -0.3605   -8.3585    7.6619 H       1  UNL1        0.0000
     18 H           0.6216   -9.2807    6.5545 H       1  UNL1        0.0000
     19 H          -0.9332   -8.6704    6.0377 H       1  UNL1        0.0000
     20 C          -1.7165   -5.7478    7.3405 C.3     1  UNL1        0.0000
     21 H          -2.2039   -6.6190    6.9114 H       1  UNL1        0.0000
     22 H          -2.4563   -5.1713    7.8915 H       1  UNL1        0.0000
     23 H          -0.9542   -6.0788    8.0383 H       1  UNL1        0.0000
     24 H           1.6921   -7.3562    4.8785 H       1  UNL1        0.0000
@<TRIPOS>BOND
     1     9     8    1
     2    24     1    1
     3    11     8    1
     4     2     1    1
     5     2     3    1
     6     8    10    1
     7     8     3    1
     8     1    16    1
     9     1     4    1
    10    19    16    1
    11    15    12    1
    12     3    12    1
    13     3    20    1
    14    18    16    1
    15    16    17    1
    16    12    14    1
    17    12    13    1
    18    21    20    1
    19     5     4    1
    20    20    22    1
    21    20    23    1
    22     4     6    1
    23     4     7    1
