@<TRIPOS>MOLECULE
1
 39 41 0 0 0
SMALL
GASTEIGER

@<TRIPOS>ATOM
      1 N          -1.1101    4.9044    7.5096 N.3     1  UNL1        0.0000
      2 H          -1.1870    5.9089    7.7286 H       1  UNL1        0.0000
      3 H          -1.5667    4.4198    8.2813 H       1  UNL1        0.0000
      4 N           0.2456    4.4515    7.5039 N.3     1  UNL1        0.0000
      5 H           0.7149    4.8808    6.7158 H       1  UNL1        0.0000
      6 B           1.0263    4.6072    8.8292 B       1  UNL1        0.0000
      7 C           0.5926    3.3573    9.8118 C.ar    1  UNL1        0.0000
      8 C          -0.5840    3.3418   10.5520 C.ar    1  UNL1        0.0000
      9 C          -0.9251    2.3448   11.4541 C.ar    1  UNL1        0.0000
     10 C          -0.0928    1.2452   11.6017 C.ar    1  UNL1        0.0000
     11 C           1.0577    1.1775   10.8300 C.ar    1  UNL1        0.0000
     12 C           1.3801    2.2212    9.9687 C.ar    1  UNL1        0.0000
     13 C           0.7191    6.0956    9.5130 C.ar    1  UNL1        0.0000
     14 C           0.7721    7.2198    8.6921 C.ar    1  UNL1        0.0000
     15 C           0.5180    8.5156    9.1230 C.ar    1  UNL1        0.0000
     16 C           0.2080    8.7420   10.4558 C.ar    1  UNL1        0.0000
     17 C           0.1928    7.6596   11.3246 C.ar    1  UNL1        0.0000
     18 C           0.4525    6.3749   10.8519 C.ar    1  UNL1        0.0000
     19 C           2.6558    4.6090    8.6297 C.ar    1  UNL1        0.0000
     20 C           3.4745    4.8221    9.7383 C.ar    1  UNL1        0.0000
     21 C           4.8618    4.8663    9.6789 C.ar    1  UNL1        0.0000
     22 C           5.5055    4.6904    8.4608 C.ar    1  UNL1        0.0000
     23 C           4.7301    4.4671    7.3338 C.ar    1  UNL1        0.0000
     24 C           3.3430    4.4287    7.4374 C.ar    1  UNL1        0.0000
     25 F          -1.4816    4.3424   10.4030 F       1  UNL1        0.0000
     26 F          -2.0589    2.4338   12.1617 F       1  UNL1        0.0000
     27 F          -0.4103    0.2573   12.4446 F       1  UNL1        0.0000
     28 F           1.8549    0.1046   10.9134 F       1  UNL1        0.0000
     29 F           2.5101    2.0654    9.2546 F       1  UNL1        0.0000
     30 F           1.0881    7.0762    7.3848 F       1  UNL1        0.0000
     31 F           0.5636    9.5398    8.2558 F       1  UNL1        0.0000
     32 F          -0.0635    9.9773   10.8909 F       1  UNL1        0.0000
     33 F          -0.0813    7.8540   12.6192 F       1  UNL1        0.0000
     34 F           0.4390    5.4065   11.7744 F       1  UNL1        0.0000
     35 F           2.9248    4.9871   10.9519 F       1  UNL1        0.0000
     36 F           5.5779    5.0814   10.7894 F       1  UNL1        0.0000
     37 F           6.8392    4.7340    8.3781 F       1  UNL1        0.0000
     38 F           5.3122    4.2853    6.1387 F       1  UNL1        0.0000
     39 F           2.6819    4.1905    6.2948 F       1  UNL1        0.0000
@<TRIPOS>BOND
     1    38    23    1
     2    39    24    1
     3     5     4    1
     4    23    24   ar
     5    23    22   ar
     6    30    14    1
     7    24    19   ar
     8     4     1    1
     9     4     6    1
    10     1     2    1
    11     1     3    1
    12    31    15    1
    13    37    22    1
    14    22    21   ar
    15    19     6    1
    16    19    20   ar
    17    14    15   ar
    18    14    13   ar
    19     6    13    1
    20     6     7    1
    21    15    16   ar
    22    29    12    1
    23    13    18   ar
    24    21    20   ar
    25    21    36    1
    26    20    35    1
    27     7    12   ar
    28     7     8   ar
    29    12    11   ar
    30    25     8    1
    31    16    32    1
    32    16    17   ar
    33     8     9   ar
    34    11    28    1
    35    11    10   ar
    36    18    17   ar
    37    18    34    1
    38    17    33    1
    39     9    10   ar
    40     9    26    1
    41    10    27    1
