@<TRIPOS>MOLECULE
4
 39 41 0 0 0
SMALL
GASTEIGER

@<TRIPOS>ATOM
      1 H           5.2117    7.6675    2.2198 H       1  UNL1        0.0000
      2 H           5.4121    6.7103    3.5208 H       1  UNL1        0.0000
      3 H           5.9519    8.8307    4.6447 H       1  UNL1        0.0000
      4 N           5.1685    7.6654    3.2386 N.3     1  UNL1        0.0000
      5 N           6.1514    8.6087    3.6814 N.3     1  UNL1        0.0000
      6 B           7.6541    8.4693    3.3771 B       1  UNL1        0.0000
      7 C           8.4237    7.3440    4.3390 C.ar    1  UNL1        0.0000
      8 C           8.0666    5.9992    4.2909 C.ar    1  UNL1        0.0000
      9 C           8.6006    5.0074    5.0993 C.ar    1  UNL1        0.0000
     10 C           9.5838    5.3380    6.0201 C.ar    1  UNL1        0.0000
     11 C          10.0162    6.6550    6.0731 C.ar    1  UNL1        0.0000
     12 C           9.4478    7.6176    5.2420 C.ar    1  UNL1        0.0000
     13 C           8.2461    9.9728    3.6839 C.ar    1  UNL1        0.0000
     14 C           7.9921   10.5898    4.9069 C.ar    1  UNL1        0.0000
     15 C           8.3931   11.8800    5.2187 C.ar    1  UNL1        0.0000
     16 C           9.0987   12.6238    4.2816 C.ar    1  UNL1        0.0000
     17 C           9.3922   12.0429    3.0572 C.ar    1  UNL1        0.0000
     18 C           8.9671   10.7451    2.7835 C.ar    1  UNL1        0.0000
     19 C           7.8834    8.0555    1.8030 C.ar    1  UNL1        0.0000
     20 C           8.9324    7.2492    1.3671 C.ar    1  UNL1        0.0000
     21 C           9.1158    6.8788    0.0384 C.ar    1  UNL1        0.0000
     22 C           8.2347    7.3251   -0.9368 C.ar    1  UNL1        0.0000
     23 C           7.2001    8.1647   -0.5539 C.ar    1  UNL1        0.0000
     24 C           7.0572    8.5164    0.7825 C.ar    1  UNL1        0.0000
     25 F           8.1569    3.7442    4.9973 F       1  UNL1        0.0000
     26 F          10.1047    4.4081    6.8283 F       1  UNL1        0.0000
     27 F          10.9847    7.0009    6.9293 F       1  UNL1        0.0000
     28 F           9.9761    8.8469    5.3452 F       1  UNL1        0.0000
     29 F           7.3365    9.9159    5.8745 F       1  UNL1        0.0000
     30 F           8.0883   12.4149    6.4104 F       1  UNL1        0.0000
     31 F           9.4819   13.8762    4.5550 F       1  UNL1        0.0000
     32 F          10.0753   12.7350    2.1365 F       1  UNL1        0.0000
     33 F           9.2973   10.2600    1.5731 F       1  UNL1        0.0000
     34 F           9.8514    6.7904    2.2319 F       1  UNL1        0.0000
     35 F          10.1371    6.0845   -0.3015 F       1  UNL1        0.0000
     36 F           8.3791    6.9582   -2.2146 F       1  UNL1        0.0000
     37 F           6.3273    8.6265   -1.4647 F       1  UNL1        0.0000
     38 F           6.0372    9.3575    1.0590 F       1  UNL1        0.0000
     39 F           7.1403    5.5895    3.3910 F       1  UNL1        0.0000
@<TRIPOS>BOND
     1    36    22    1
     2    37    23    1
     3    22    23   ar
     4    22    21   ar
     5    23    24   ar
     6    35    21    1
     7    21    20   ar
     8    24    38    1
     9    24    19   ar
    10    20    19   ar
    11    20    34    1
    12    33    18    1
    13    19     6    1
    14    32    17    1
    15     1     4    1
    16    18    17   ar
    17    18    13   ar
    18    17    16   ar
    19     4     2    1
    20     4     5    1
    21     6     5    1
    22     6    13    1
    23     6     7    1
    24    39     8    1
    25     5     3    1
    26    13    14   ar
    27    16    31    1
    28    16    15   ar
    29     8     7   ar
    30     8     9   ar
    31     7    12   ar
    32    14    15   ar
    33    14    29    1
    34    25     9    1
    35     9    10   ar
    36    15    30    1
    37    12    28    1
    38    12    11   ar
    39    10    11   ar
    40    10    26    1
    41    11    27    1
