@<TRIPOS>MOLECULE
1
 19 19 0 0 0
SMALL
GASTEIGER

@<TRIPOS>ATOM
      1 N           6.3603    5.2008    4.5542 N.pl3   1  UNL1       -0.2660
      2 H           7.3807    5.1966    4.5395 H       1  UNL1        0.1699
      3 C           5.9131    6.3759    4.0333 C.ar    1  UNL1        0.0501
      4 C           6.7095    7.5493    4.0482 C.ar    1  UNL1       -0.0279
      5 C           6.2089    8.7344    3.5437 C.ar    1  UNL1       -0.0570
      6 H           6.8255    9.6238    3.5820 H       1  UNL1        0.0621
      7 C           4.9417    8.8053    2.9926 C.ar    1  UNL1       -0.0611
      8 H           4.5620    9.7409    2.6083 H       1  UNL1        0.0618
      9 C           4.1822    7.6493    2.9117 C.ar    1  UNL1       -0.0570
     10 H           3.2123    7.6815    2.4304 H       1  UNL1        0.0621
     11 C           4.6437    6.4466    3.4099 C.ar    1  UNL1       -0.0279
     12 C           8.1035    7.5085    4.6134 C.3     1  UNL1       -0.0379
     13 H           8.7635    6.8965    3.9915 H       1  UNL1        0.0278
     14 H           8.1136    7.0917    5.6232 H       1  UNL1        0.0278
     15 H           8.5239    8.5111    4.6587 H       1  UNL1        0.0278
     16 C           3.8430    5.1913    3.2289 C.3     1  UNL1       -0.0379
     17 H           2.8153    5.4161    2.9519 H       1  UNL1        0.0278
     18 H           3.8534    4.6002    4.1417 H       1  UNL1        0.0278
     19 H           4.2840    4.5855    2.4351 H       1  UNL1        0.0278
@<TRIPOS>BOND
     1    10     9    1
     2    19    16    1
     3     8     7    1
     4     9     7   ar
     5     9    11   ar
     6    17    16    1
     7     7     5   ar
     8    16    11    1
     9    16    18    1
    10    11     3   ar
    11     5     6    1
    12     5     4   ar
    13    13    12    1
    14     3     4   ar
    15     3     1    1
    16     4    12    1
    17     2     1    1
    18    12    15    1
    19    12    14    1
