@<TRIPOS>MOLECULE
2
 67 70 0 0 0
SMALL
GASTEIGER

@<TRIPOS>ATOM
      1 SI         -2.6494    4.3919   -6.5820 Si      1  UNL1        0.0000
      2 N          -3.3313    3.3682   -5.3594 N.3     1  UNL1        0.0000
      3 F          -0.1136   -0.7620   -6.7680 F       1  UNL1        0.0000
      4 F           2.1657    0.5495   -7.2600 F       1  UNL1        0.0000
      5 F           3.4720    1.8606   -5.2420 F       1  UNL1        0.0000
      6 F           2.4069    1.8152   -2.7142 F       1  UNL1        0.0000
      7 F           0.1300    0.5367   -2.2218 F       1  UNL1        0.0000
      8 F          -1.9775   -2.8614   -1.8786 F       1  UNL1        0.0000
      9 F          -3.2309   -2.2015    0.3601 F       1  UNL1        0.0000
     10 F          -4.0982    0.3560    0.8099 F       1  UNL1        0.0000
     11 F          -3.5912    2.3133   -1.2160 F       1  UNL1        0.0000
     12 F          -2.3884    1.6406   -3.3481 F       1  UNL1        0.0000
     13 F           1.0005   -2.5795   -4.4862 F       1  UNL1        0.0000
     14 F           1.1099   -5.1857   -5.0009 F       1  UNL1        0.0000
     15 F          -1.1843   -6.6573   -5.2670 F       1  UNL1        0.0000
     16 F          -3.6077   -5.4117   -4.9694 F       1  UNL1        0.0000
     17 F          -3.7289   -2.7945   -4.4531 F       1  UNL1        0.0000
     18 C          -2.6378   -0.3504   -5.3916 C.3     1  UNL1        0.0000
     19 C          -2.4603    1.0787   -5.9526 C.3     1  UNL1        0.0000
     20 C          -3.7012    2.0462   -5.8855 C.3     1  UNL1        0.0000
     21 C          -0.1092   -0.1670   -4.4804 C.ar    1  UNL1        0.0000
     22 C           0.4788   -0.1294   -5.7454 C.ar    1  UNL1        0.0000
     23 C           1.6673    0.5342   -6.0178 C.ar    1  UNL1        0.0000
     24 C           2.3355    1.2007   -4.9966 C.ar    1  UNL1        0.0000
     25 C           1.7937    1.1762   -3.7199 C.ar    1  UNL1        0.0000
     26 C           0.5986    0.5004   -3.4910 C.ar    1  UNL1        0.0000
     27 C          -2.1554   -0.6778   -2.7905 C.ar    1  UNL1        0.0000
     28 C          -2.3880   -1.5993   -1.7632 C.ar    1  UNL1        0.0000
     29 C          -3.0312   -1.2682   -0.5692 C.ar    1  UNL1        0.0000
     30 C          -3.4722    0.0342   -0.3211 C.ar    1  UNL1        0.0000
     31 C          -3.2262    0.9744   -1.3050 C.ar    1  UNL1        0.0000
     32 C          -2.5984    0.5903   -2.4742 C.ar    1  UNL1        0.0000
     33 C          -1.3736   -2.5436   -4.5240 C.ar    1  UNL1        0.0000
     34 C          -0.1690   -3.2267   -4.6404 C.ar    1  UNL1        0.0000
     35 C          -0.0856   -4.5933   -4.8920 C.ar    1  UNL1        0.0000
     36 C          -2.4710   -4.7077   -4.8766 C.ar    1  UNL1        0.0000
     37 C          -2.5102   -3.3422   -4.6315 C.ar    1  UNL1        0.0000
     38 C          -3.5565    4.2251   -8.2643 C.3     1  UNL1        0.0000
     39 C          -0.7941    4.0674   -6.9843 C.3     1  UNL1        0.0000
     40 C          -2.8490    6.2458   -6.1178 C.3     1  UNL1        0.0000
     41 C          -4.8839    1.3981   -5.2035 C.ar    1  UNL1        0.0000
     42 C          -5.1265    1.5191   -3.8424 C.ar    1  UNL1        0.0000
     43 C          -6.1574    0.8253   -3.2256 C.ar    1  UNL1        0.0000
     44 C          -6.9767    0.0016   -3.9757 C.ar    1  UNL1        0.0000
     45 C          -6.7693   -0.1055   -5.3420 C.ar    1  UNL1        0.0000
     46 C          -5.7363    0.5837   -5.9487 C.ar    1  UNL1        0.0000
     47 B          -1.5305   -0.9347   -4.2864 B       1  UNL1        0.0000
     48 H          -2.6433   -1.0311   -6.2414 H       1  UNL1        0.0000
     49 H          -3.6221   -0.4476   -4.9421 H       1  UNL1        0.0000
     50 H          -2.1817    0.9990   -7.0033 H       1  UNL1        0.0000
     51 H          -1.6317    1.5985   -5.4670 H       1  UNL1        0.0000
     52 H          -4.0280    2.1823   -6.9219 H       1  UNL1        0.0000
     53 H          -3.3229    5.0693   -8.9047 H       1  UNL1        0.0000
     54 H          -4.6360    4.1967   -8.1450 H       1  UNL1        0.0000
     55 H          -3.2561    3.3295   -8.7979 H       1  UNL1        0.0000
     56 H          -0.1368    4.1823   -6.1280 H       1  UNL1        0.0000
     57 H          -0.4530    4.7623   -7.7454 H       1  UNL1        0.0000
     58 H          -0.6435    3.0674   -7.3787 H       1  UNL1        0.0000
     59 H          -1.9931    6.7960   -6.4942 H       1  UNL1        0.0000
     60 H          -2.9294    6.4423   -5.0526 H       1  UNL1        0.0000
     61 H          -3.7227    6.6679   -6.6030 H       1  UNL1        0.0000
     62 H          -4.5055    2.2147   -3.2750 H       1  UNL1        0.0000
     63 H          -6.3214    0.9277   -2.1618 H       1  UNL1        0.0000
     64 H          -7.7735   -0.5485   -3.5009 H       1  UNL1        0.0000
     65 H          -7.4127   -0.7369   -5.9346 H       1  UNL1        0.0000
     66 H          -5.5721    0.4776   -7.0102 H       1  UNL1        0.0000
     67 C          -1.2449   -5.3443   -5.0222 C.ar    1  UNL1        0.0000
@<TRIPOS>BOND
     1    53    38    1
     2    55    38    1
     3    38    54    1
     4    38     1    1
     5    57    39    1
     6    58    39    1
     7     4    23    1
     8    66    46    1
     9    50    19    1
    10    39     1    1
    11    39    56    1
    12    52    20    1
    13     3    22    1
    14    61    40    1
    15     1    40    1
    16     1     2    1
    17    59    40    1
    18    48    18    1
    19    40    60    1
    20    23    22   ar
    21    23    24   ar
    22    19    20    1
    23    19    51    1
    24    19    18    1
    25    46    45   ar
    26    46    41   ar
    27    65    45    1
    28    20     2    1
    29    20    41    1
    30    22    21   ar
    31    18    49    1
    32    18    47    1
    33    45    44   ar
    34    15    67    1
    35     5    24    1
    36    41    42   ar
    37    67    35   ar
    38    67    36   ar
    39    14    35    1
    40    24    25   ar
    41    16    36    1
    42    35    34   ar
    43    36    37   ar
    44    34    33   ar
    45    34    13    1
    46    37    33   ar
    47    37    17    1
    48    33    47    1
    49    21    47    1
    50    21    26   ar
    51    47    27    1
    52    44    64    1
    53    44    43   ar
    54    42    62    1
    55    42    43   ar
    56    25    26   ar
    57    25     6    1
    58    26     7    1
    59    12    32    1
    60    43    63    1
    61    27    32   ar
    62    27    28   ar
    63    32    31   ar
    64     8    28    1
    65    28    29   ar
    66    31    11    1
    67    31    30   ar
    68    29    30   ar
    69    29     9    1
    70    30    10    1
