@<TRIPOS>MOLECULE
5
 21 20 0 0 0
SMALL
GASTEIGER

@<TRIPOS>ATOM
      1 SI         -2.1722    7.7424    4.1880 Si      1  UNL1        0.0000
      2 H          -1.4058    6.7090    4.9627 H       1  UNL1        0.0000
      3 SI         -1.5744   10.5372    3.1634 Si      1  UNL1        0.0000
      4 H          -0.4419   11.1243    2.3763 H       1  UNL1        0.0000
      5 N          -1.0740    8.9981    3.7494 N.3     1  UNL1        0.0000
      6 C          -3.0109    6.8584    2.7214 C.3     1  UNL1        0.0000
      7 H          -3.6886    7.5192    2.1911 H       1  UNL1        0.0000
      8 H          -3.5866    6.0027    3.0604 H       1  UNL1        0.0000
      9 H          -2.2720    6.4997    2.0127 H       1  UNL1        0.0000
     10 C          -3.5871    8.3429    5.3314 C.3     1  UNL1        0.0000
     11 H          -3.2150    8.8787    6.1992 H       1  UNL1        0.0000
     12 H          -4.1824    7.5087    5.6891 H       1  UNL1        0.0000
     13 H          -4.2540    9.0132    4.7996 H       1  UNL1        0.0000
     14 C          -1.9648   11.7982    4.5541 C.3     1  UNL1        0.0000
     15 H          -2.7369   11.4311    5.2234 H       1  UNL1        0.0000
     16 H          -2.3195   12.7336    4.1327 H       1  UNL1        0.0000
     17 H          -1.0853   12.0233    5.1507 H       1  UNL1        0.0000
     18 C          -3.0913   10.5217    2.0089 C.3     1  UNL1        0.0000
     19 H          -2.9402    9.8460    1.1738 H       1  UNL1        0.0000
     20 H          -3.2851   11.5095    1.6035 H       1  UNL1        0.0000
     21 H          -3.9848   10.2019    2.5343 H       1  UNL1        0.0000
@<TRIPOS>BOND
     1    19    18    1
     2    20    18    1
     3    18    21    1
     4    18     3    1
     5     9     6    1
     6     7     6    1
     7     4     3    1
     8     6     8    1
     9     6     1    1
    10     3     5    1
    11     3    14    1
    12     5     1    1
    13    16    14    1
    14     1     2    1
    15     1    10    1
    16    14    17    1
    17    14    15    1
    18    13    10    1
    19    10    12    1
    20    10    11    1
