@<TRIPOS>MOLECULE
5
 21 20 0 0 0
SMALL
GASTEIGER

@<TRIPOS>ATOM
      1 SI          4.7349    2.4940   19.6954 Si      1  UNL1        0.0000
      2 H           5.5871    2.2811   20.9119 H       1  UNL1        0.0000
      3 SI          1.9252    3.4571   19.3128 Si      1  UNL1        0.0000
      4 H           0.9249    4.1757   20.1798 H       1  UNL1        0.0000
      5 N           3.2749    3.1629   20.3556 N.3     1  UNL1        0.0000
      6 C           4.5581    0.8371   18.7706 C.3     1  UNL1        0.0000
      7 H           3.9514    0.1152   19.3081 H       1  UNL1        0.0000
      8 H           5.5332    0.3880   18.6130 H       1  UNL1        0.0000
      9 H           4.1109    0.9822   17.7923 H       1  UNL1        0.0000
     10 C           5.6405    3.6514   18.4797 C.3     1  UNL1        0.0000
     11 H           5.2253    3.5713   17.4808 H       1  UNL1        0.0000
     12 H           6.6925    3.3937   18.4119 H       1  UNL1        0.0000
     13 H           5.5723    4.6931   18.7756 H       1  UNL1        0.0000
     14 C           1.0306    1.9386   18.5794 C.3     1  UNL1        0.0000
     15 H           1.7209    1.2924   18.0478 H       1  UNL1        0.0000
     16 H           0.2806    2.2652   17.8656 H       1  UNL1        0.0000
     17 H           0.5231    1.3339   19.3226 H       1  UNL1        0.0000
     18 C           2.3053    4.5462   17.7971 C.3     1  UNL1        0.0000
     19 H           3.0457    5.3115   17.9987 H       1  UNL1        0.0000
     20 H           1.4059    5.0405   17.4439 H       1  UNL1        0.0000
     21 H           2.6778    3.9398   16.9784 H       1  UNL1        0.0000
@<TRIPOS>BOND
     1    21    18    1
     2    20    18    1
     3    11    10    1
     4     9     6    1
     5    18    19    1
     6    18     3    1
     7    16    14    1
     8    15    14    1
     9    12    10    1
    10    10    13    1
    11    10     1    1
    12    14     3    1
    13    14    17    1
    14     8     6    1
    15     6     7    1
    16     6     1    1
    17     3     4    1
    18     3     5    1
    19     1     5    1
    20     1     2    1
