@<TRIPOS>MOLECULE
5
 21 20 0 0 0
SMALL
GASTEIGER

@<TRIPOS>ATOM
      1 SI          2.5242    5.5104    4.6211 Si      1  UNL1        0.0000
      2 H           3.0915    6.4997    5.6059 H       1  UNL1        0.0000
      3 SI          1.0291    5.7215    2.0189 Si      1  UNL1        0.0000
      4 H           0.1070    6.7291    1.3964 H       1  UNL1        0.0000
      5 N           1.6063    6.4205    3.4913 N.3     1  UNL1        0.0000
      6 C           4.0074    4.5463    3.9081 C.3     1  UNL1        0.0000
      7 H           3.6754    3.6809    3.3440 H       1  UNL1        0.0000
      8 H           4.6629    4.1910    4.6971 H       1  UNL1        0.0000
      9 H           4.5953    5.1666    3.2405 H       1  UNL1        0.0000
     10 C           1.4865    4.2393    5.6140 C.3     1  UNL1        0.0000
     11 H           0.4366    4.5177    5.6325 H       1  UNL1        0.0000
     12 H           1.8291    4.1510    6.6408 H       1  UNL1        0.0000
     13 H           1.5477    3.2518    5.1684 H       1  UNL1        0.0000
     14 C           2.3966    5.3383    0.7423 C.3     1  UNL1        0.0000
     15 H           3.0739    6.1783    0.6313 H       1  UNL1        0.0000
     16 H           1.9682    5.1316   -0.2333 H       1  UNL1        0.0000
     17 H           2.9849    4.4740    1.0307 H       1  UNL1        0.0000
     18 C           0.0344    4.1133    2.2778 C.3     1  UNL1        0.0000
     19 H           0.6659    3.3136    2.6508 H       1  UNL1        0.0000
     20 H          -0.4104    3.7735    1.3480 H       1  UNL1        0.0000
     21 H          -0.7673    4.2630    2.9935 H       1  UNL1        0.0000
@<TRIPOS>BOND
     1    16    14    1
     2    15    14    1
     3    14    17    1
     4    14     3    1
     5    20    18    1
     6     4     3    1
     7     3    18    1
     8     3     5    1
     9    18    19    1
    10    18    21    1
    11     9     6    1
    12     7     6    1
    13     5     1    1
    14     6     1    1
    15     6     8    1
    16     1     2    1
    17     1    10    1
    18    13    10    1
    19    10    11    1
    20    10    12    1
