@<TRIPOS>MOLECULE
1
 9 8 0 0 0
SMALL
GASTEIGER

@<TRIPOS>ATOM
      1 N           2.1109    3.9336   15.1271 N.3     1  UNL1       -0.2469
      2 C           0.8400    3.6741   14.4743 C.3     1  UNL1        0.0021
      3 H           1.0078    3.3574   13.4409 H       1  UNL1        0.0405
      4 H           0.2033    4.5812   14.4715 H       1  UNL1        0.0405
      5 H           0.2560    2.8884   14.9925 H       1  UNL1        0.0405
      6 C           1.8776    4.1832   16.5372 C.3     1  UNL1        0.0021
      7 H           2.7814    4.5670   17.0177 H       1  UNL1        0.0405
      8 H           1.5469    3.2733   17.0800 H       1  UNL1        0.0405
      9 H           1.0809    4.9387   16.6737 H       1  UNL1        0.0405
@<TRIPOS>BOND
     1     3     2    1
     2     4     2    1
     3     2     5    1
     4     2     1    1
     5     1     6    1
     6     6     9    1
     7     6     7    1
     8     6     8    1
