@<TRIPOS>MOLECULE
1
 27 26 0 0 0
SMALL
GASTEIGER

@<TRIPOS>ATOM
      1 N           0.0537    3.5422    6.1620 N.3     1  UNL1        0.0000
      2 SI         -0.3483    2.1863    7.1398 Si      1  UNL1        0.0000
      3 C           1.1497    0.9779    7.2134 C.3     1  UNL1        0.0000
      4 H           2.0951    1.5160    7.2576 H       1  UNL1        0.0000
      5 H           1.1780    0.3533    6.3263 H       1  UNL1        0.0000
      6 H           1.0936    0.3192    8.0750 H       1  UNL1        0.0000
      7 C          -0.7451    2.7622    8.9321 C.3     1  UNL1        0.0000
      8 H          -1.7230    3.2311    8.9737 H       1  UNL1        0.0000
      9 H          -0.0203    3.4853    9.2982 H       1  UNL1        0.0000
     10 H          -0.7574    1.9252    9.6239 H       1  UNL1        0.0000
     11 C          -1.8481    1.1434    6.5895 C.3     1  UNL1        0.0000
     12 H          -2.7160    1.7715    6.4260 H       1  UNL1        0.0000
     13 H          -2.1114    0.4023    7.3372 H       1  UNL1        0.0000
     14 H          -1.6415    0.6199    5.6637 H       1  UNL1        0.0000
     15 SI         -0.7600    4.0004    4.7204 Si      1  UNL1        0.0000
     16 C          -2.4898    4.7724    5.0181 C.3     1  UNL1        0.0000
     17 H          -2.4282    5.6486    5.6564 H       1  UNL1        0.0000
     18 H          -3.1493    4.0606    5.5027 H       1  UNL1        0.0000
     19 H          -2.9589    5.0737    4.0869 H       1  UNL1        0.0000
     20 C           0.3394    5.3600    3.9303 C.3     1  UNL1        0.0000
     21 H           0.3902    6.2363    4.5756 H       1  UNL1        0.0000
     22 H          -0.0588    5.6859    2.9735 H       1  UNL1        0.0000
     23 H           1.3548    4.9956    3.7516 H       1  UNL1        0.0000
     24 C          -0.9622    2.6114    3.4156 C.3     1  UNL1        0.0000
     25 H          -1.8095    1.9795    3.6544 H       1  UNL1        0.0000
     26 H          -0.0810    1.9788    3.3796 H       1  UNL1        0.0000
     27 H          -1.1243    3.0142    2.4207 H       1  UNL1        0.0000
@<TRIPOS>BOND
     1    27    24    1
     2    22    20    1
     3    26    24    1
     4    24    25    1
     5    24    15    1
     6    23    20    1
     7    20    21    1
     8    20    15    1
     9    19    16    1
    10    15    16    1
    11    15     1    1
    12    16    18    1
    13    16    17    1
    14    14    11    1
    15     1     2    1
    16     5     3    1
    17    12    11    1
    18    11     2    1
    19    11    13    1
    20     2     3    1
    21     2     7    1
    22     3     4    1
    23     3     6    1
    24     7     8    1
    25     7     9    1
    26     7    10    1
