@<TRIPOS>MOLECULE
1
 27 26 0 0 0
SMALL
GASTEIGER

@<TRIPOS>ATOM
      1 N           1.9655    7.0821    6.6293 N.3     1  UNL1        0.0000
      2 SI          0.7218    7.8780    7.5114 Si      1  UNL1        0.0000
      3 C           1.3487    9.0644    8.8851 C.3     1  UNL1        0.0000
      4 H           1.9723    9.8438    8.4637 H       1  UNL1        0.0000
      5 H           1.9348    8.5458    9.6377 H       1  UNL1        0.0000
      6 H           0.5192    9.5460    9.3931 H       1  UNL1        0.0000
      7 C          -0.2635    6.4910    8.4062 C.3     1  UNL1        0.0000
      8 H          -0.5976    5.7198    7.7067 H       1  UNL1        0.0000
      9 H          -1.1516    6.8938    8.8850 H       1  UNL1        0.0000
     10 H           0.3331    6.0247    9.1922 H       1  UNL1        0.0000
     11 C          -0.5250    8.8873    6.4671 C.3     1  UNL1        0.0000
     12 H          -0.0363    9.7469    6.0208 H       1  UNL1        0.0000
     13 H          -1.3493    9.2553    7.0699 H       1  UNL1        0.0000
     14 H          -0.9452    8.2919    5.6624 H       1  UNL1        0.0000
     15 SI          2.9756    7.8960    5.4977 Si      1  UNL1        0.0000
     16 C           2.1543    8.4284    3.8432 C.3     1  UNL1        0.0000
     17 H           1.9819    7.5878    3.1797 H       1  UNL1        0.0000
     18 H           2.7820    9.1381    3.3123 H       1  UNL1        0.0000
     19 H           1.1981    8.9090    4.0186 H       1  UNL1        0.0000
     20 C           3.7837    9.5080    6.1386 C.3     1  UNL1        0.0000
     21 H           4.3124    9.3526    7.0707 H       1  UNL1        0.0000
     22 H           3.0309   10.2709    6.3038 H       1  UNL1        0.0000
     23 H           4.4948    9.9002    5.4184 H       1  UNL1        0.0000
     24 C           4.3884    6.6868    5.0290 C.3     1  UNL1        0.0000
     25 H           4.8879    6.2887    5.9092 H       1  UNL1        0.0000
     26 H           5.1411    7.1896    4.4300 H       1  UNL1        0.0000
     27 H           4.0149    5.8485    4.4427 H       1  UNL1        0.0000
@<TRIPOS>BOND
     1    17    16    1
     2    18    16    1
     3    16    19    1
     4    16    15    1
     5    26    24    1
     6    27    24    1
     7    24    15    1
     8    24    25    1
     9    23    20    1
    10    15    20    1
    11    15     1    1
    12    14    11    1
    13    12    11    1
    14    20    22    1
    15    20    21    1
    16    11    13    1
    17    11     2    1
    18     1     2    1
    19     2     7    1
    20     2     3    1
    21     8     7    1
    22     7     9    1
    23     7    10    1
    24     4     3    1
    25     3     6    1
    26     3     5    1
