@<TRIPOS>MOLECULE
1
 15 14 0 0 0
SMALL
GASTEIGER

@<TRIPOS>ATOM
      1 N          -0.7656    2.8473   30.2345 N.3     1  UNL1       -0.2409
      2 C          -1.5990    3.2675   31.3482 C.3     1  UNL1        0.0111
      3 H          -2.5135    3.7301   30.9536 H       1  UNL1        0.0438
      4 H          -1.0823    4.0270   31.9564 H       1  UNL1        0.0438
      5 C          -2.0129    2.1057   32.2738 C.3     1  UNL1       -0.0510
      6 H          -2.7681    2.4402   32.9822 H       1  UNL1        0.0242
      7 H          -1.1592    1.7367   32.8394 H       1  UNL1        0.0242
      8 H          -2.4268    1.2923   31.6693 H       1  UNL1        0.0242
      9 C           0.6514    2.8680   30.5620 C.3     1  UNL1        0.0111
     10 H           1.1913    2.1864   29.8847 H       1  UNL1        0.0438
     11 H           0.8281    2.5220   31.5982 H       1  UNL1        0.0438
     12 C           1.2794    4.2687   30.4203 C.3     1  UNL1       -0.0510
     13 H           2.3285    4.2422   30.7065 H       1  UNL1        0.0242
     14 H           0.7655    4.9847   31.0581 H       1  UNL1        0.0242
     15 H           1.2029    4.6053   29.3893 H       1  UNL1        0.0242
@<TRIPOS>BOND
     1    15    12    1
     2    10     9    1
     3     1     9    1
     4     1     2    1
     5    12     9    1
     6    12    13    1
     7    12    14    1
     8     9    11    1
     9     3     2    1
    10     2     4    1
    11     2     5    1
    12     8     5    1
    13     5     7    1
    14     5     6    1
