@<TRIPOS>MOLECULE
1
 9 8 0 0 0
SMALL
GASTEIGER

@<TRIPOS>ATOM
      1 N           2.6444   -0.3573    2.6380 N.3     1  UNL1       -0.2469
      2 C           1.3491   -0.5051    1.9946 C.3     1  UNL1        0.0021
      3 H           1.2946   -1.4675    1.4734 H       1  UNL1        0.0405
      4 H           1.1784    0.3054    1.2630 H       1  UNL1        0.0405
      5 H           0.5172   -0.4495    2.7225 H       1  UNL1        0.0405
      6 C           2.6040    0.7878    3.5238 C.3     1  UNL1        0.0021
      7 H           3.5815    0.9621    3.9828 H       1  UNL1        0.0405
      8 H           1.8504    0.6677    4.3306 H       1  UNL1        0.0405
      9 H           2.3276    1.7014    2.9679 H       1  UNL1        0.0405
@<TRIPOS>BOND
     1     4     2    1
     2     3     2    1
     3     2     1    1
     4     2     5    1
     5     1     6    1
     6     9     6    1
     7     6     7    1
     8     6     8    1
