@<TRIPOS>MOLECULE
1
 9 8 0 0 0
SMALL
GASTEIGER

@<TRIPOS>ATOM
      1 N           3.4246   -2.8935    1.1734 N.3     1  UNL1       -0.2469
      2 C           3.8050   -4.2463    0.8238 C.3     1  UNL1        0.0021
      3 H           3.6922   -4.9183    1.6791 H       1  UNL1        0.0405
      4 H           4.8531   -4.3059    0.4621 H       1  UNL1        0.0405
      5 H           3.1679   -4.6326    0.0083 H       1  UNL1        0.0405
      6 C           3.5253   -2.0548   -0.0097 C.3     1  UNL1        0.0021
      7 H           3.4259   -0.9990    0.2661 H       1  UNL1        0.0405
      8 H           2.7349   -2.3076   -0.7398 H       1  UNL1        0.0405
      9 H           4.4905   -2.1953   -0.5332 H       1  UNL1        0.0405
@<TRIPOS>BOND
     1     8     6    1
     2     9     6    1
     3     6     7    1
     4     6     1    1
     5     5     2    1
     6     4     2    1
     7     2     1    1
     8     2     3    1
