@<TRIPOS>MOLECULE
1
 15 14 0 0 0
SMALL
GASTEIGER

@<TRIPOS>ATOM
      1 N          -0.5189   -0.0519   29.0026 N.3     1  UNL1       -0.2409
      2 C          -1.0346   -0.9741   30.0037 C.3     1  UNL1        0.0111
      3 H          -0.9762   -2.0198   29.6495 H       1  UNL1        0.0438
      4 H          -2.1002   -0.7386   30.1508 H       1  UNL1        0.0438
      5 C          -0.3220   -0.8955   31.3708 C.3     1  UNL1       -0.0510
      6 H          -0.9647   -1.2955   32.1512 H       1  UNL1        0.0242
      7 H          -0.0898    0.1450   31.5945 H       1  UNL1        0.0242
      8 H           0.6021   -1.4694   31.3696 H       1  UNL1        0.0242
      9 C           0.8832   -0.3004   28.6914 C.3     1  UNL1        0.0111
     10 H           1.4883   -0.3984   29.6109 H       1  UNL1        0.0438
     11 H           1.2761    0.5621   28.1326 H       1  UNL1        0.0438
     12 C           1.1282   -1.5603   27.8387 C.3     1  UNL1       -0.0510
     13 H           2.1899   -1.6578   27.6235 H       1  UNL1        0.0242
     14 H           0.5846   -1.4922   26.8995 H       1  UNL1        0.0242
     15 H           0.8032   -2.4547   28.3645 H       1  UNL1        0.0242
@<TRIPOS>BOND
     1    14    12    1
     2    13    12    1
     3    12    15    1
     4    12     9    1
     5    11     9    1
     6     9     1    1
     7     9    10    1
     8     1     2    1
     9     3     2    1
    10     2     4    1
    11     2     5    1
    12     8     5    1
    13     5     7    1
    14     5     6    1
