@<TRIPOS>MOLECULE
3
 21 20 0 0 0
SMALL
GASTEIGER

@<TRIPOS>ATOM
      1 SI         11.3065    4.5711    9.5449 Si      1  UNL1        0.0000
      2 SI          8.7197    5.5369    8.3083 Si      1  UNL1        0.0000
      3 N           9.5877    4.5682    9.4461 N.3     1  UNL1        0.0000
      4 C          12.1048    3.3681    8.2851 C.3     1  UNL1        0.0000
      5 H          11.5317    2.4496    8.1918 H       1  UNL1        0.0000
      6 H          13.1193    3.1036    8.5678 H       1  UNL1        0.0000
      7 H          12.1512    3.8212    7.3000 H       1  UNL1        0.0000
      8 C          12.1636    6.2533    9.2928 C.3     1  UNL1        0.0000
      9 H          11.8101    6.9869   10.0092 H       1  UNL1        0.0000
     10 H          11.9768    6.6459    8.2993 H       1  UNL1        0.0000
     11 H          13.2386    6.1665    9.4143 H       1  UNL1        0.0000
     12 C           9.3795    5.4490    6.5201 C.3     1  UNL1        0.0000
     13 H          10.3512    5.9253    6.4349 H       1  UNL1        0.0000
     14 H           8.7075    5.9522    5.8322 H       1  UNL1        0.0000
     15 H           9.4871    4.4236    6.1843 H       1  UNL1        0.0000
     16 C           8.6715    7.4051    8.7223 C.3     1  UNL1        0.0000
     17 H           9.6668    7.8365    8.7122 H       1  UNL1        0.0000
     18 H           8.2412    7.6066    9.6979 H       1  UNL1        0.0000
     19 H           8.0762    7.9397    7.9888 H       1  UNL1        0.0000
     20 H           7.3079    5.0293    8.3287 H       1  UNL1        0.0000
     21 H          11.6824    4.1237   10.9310 H       1  UNL1        0.0000
@<TRIPOS>BOND
     1    14    12    1
     2    15    12    1
     3    13    12    1
     4    12     2    1
     5     7     4    1
     6    19    16    1
     7     5     4    1
     8     4     6    1
     9     4     1    1
    10    10     8    1
    11     2    20    1
    12     2    16    1
    13     2     3    1
    14    17    16    1
    15    16    18    1
    16     8    11    1
    17     8     1    1
    18     8     9    1
    19     3     1    1
    20     1    21    1
