@<TRIPOS>MOLECULE
3
 21 20 0 0 0
SMALL
GASTEIGER

@<TRIPOS>ATOM
      1 SI          7.2344   -0.0753   11.0473 Si      1  UNL1        0.0000
      2 SI          6.8087    1.4622    8.4613 Si      1  UNL1        0.0000
      3 N           7.4154    1.3290   10.0681 N.3     1  UNL1        0.0000
      4 C           8.0406   -1.6523   10.3140 C.3     1  UNL1        0.0000
      5 H           8.2711   -2.3778   11.0887 H       1  UNL1        0.0000
      6 H           8.9581   -1.4382    9.7748 H       1  UNL1        0.0000
      7 H           7.3638   -2.1350    9.6173 H       1  UNL1        0.0000
      8 C           5.4275   -0.5709   11.4198 C.3     1  UNL1        0.0000
      9 H           5.0866   -1.3440   10.7391 H       1  UNL1        0.0000
     10 H           4.7540    0.2727   11.3197 H       1  UNL1        0.0000
     11 H           5.3221   -0.9605   12.4274 H       1  UNL1        0.0000
     12 C           8.2928    1.8242    7.3097 C.3     1  UNL1        0.0000
     13 H           8.9878    2.5121    7.7937 H       1  UNL1        0.0000
     14 H           7.9657    2.2839    6.3832 H       1  UNL1        0.0000
     15 H           8.8363    0.9189    7.0506 H       1  UNL1        0.0000
     16 C           5.8974   -0.0474    7.7464 C.3     1  UNL1        0.0000
     17 H           5.0689   -0.3341    8.3830 H       1  UNL1        0.0000
     18 H           6.5533   -0.9058    7.6494 H       1  UNL1        0.0000
     19 H           5.4967    0.1724    6.7621 H       1  UNL1        0.0000
     20 H           5.8382    2.6039    8.3959 H       1  UNL1        0.0000
     21 H           7.9228    0.2079   12.3445 H       1  UNL1        0.0000
@<TRIPOS>BOND
     1    14    12    1
     2    19    16    1
     3    15    12    1
     4    12    13    1
     5    12     2    1
     6    18    16    1
     7    16    17    1
     8    16     2    1
     9    20     2    1
    10     2     3    1
    11     7     4    1
    12     6     4    1
    13     3     1    1
    14     4     1    1
    15     4     5    1
    16     9     8    1
    17     1     8    1
    18     1    21    1
    19    10     8    1
    20     8    11    1
