@<TRIPOS>MOLECULE
1
 11 11 0 0 0
SMALL
GASTEIGER

@<TRIPOS>ATOM
      1 N          -1.3799    2.1282    6.1256 N.pl3   1  UNL1       -0.2487
      2 C          -1.2495    3.2937    6.7954 C.3     1  UNL1        0.0840
      3 H          -0.5427    4.0007    6.3725 H       1  UNL1        0.0584
      4 C          -2.2750    1.2421    6.6110 C.2     1  UNL1        0.0121
      5 H          -2.3887    0.3185    6.0515 H       1  UNL1        0.0797
      6 C          -2.8800    2.6710    8.4339 C.2     1  UNL1       -0.0626
      7 H          -3.4545    2.8781    9.3224 H       1  UNL1        0.0615
      8 C          -3.0284    1.4687    7.7414 C.2     1  UNL1       -0.0466
      9 H          -3.7270    0.7199    8.0813 H       1  UNL1        0.0630
     10 C          -1.9668    3.5982    7.9318 C.2     1  UNL1       -0.0600
     11 H          -1.8200    4.5450    8.4286 H       1  UNL1        0.0592
@<TRIPOS>BOND
     1     5     4    1
     2     1     4    1
     3     1     2    1
     4     3     2    1
     5     4     8    2
     6     2    10    1
     7     8     9    1
     8     8     6    1
     9    10    11    1
    10    10     6    2
    11     6     7    1
