@<TRIPOS>MOLECULE
2
 31 31 0 0 0
SMALL
GASTEIGER

@<TRIPOS>ATOM
      1 SI          2.8657   -3.8865    7.7080 Si      1  UNL1        0.0000
      2 N           3.9738   -3.5420    9.0286 N.pl3   1  UNL1        0.0000
      3 C           4.6905   -2.3399    8.9849 C.ar    1  UNL1        0.0000
      4 C           4.2121   -1.2169    9.6830 C.ar    1  UNL1        0.0000
      5 C           4.9249   -0.0292    9.6295 C.ar    1  UNL1        0.0000
      6 C           6.0942    0.0668    8.8953 C.ar    1  UNL1        0.0000
      7 C           6.5630   -1.0375    8.2077 C.ar    1  UNL1        0.0000
      8 C           5.8754   -2.2422    8.2375 C.ar    1  UNL1        0.0000
      9 C           2.9424   -1.3231   10.4744 C.3     1  UNL1        0.0000
     10 C           6.3968   -3.4337    7.4865 C.3     1  UNL1        0.0000
     11 C           3.5710   -5.1329    6.4270 C.3     1  UNL1        0.0000
     12 C           1.2231   -4.5822    8.3936 C.3     1  UNL1        0.0000
     13 C           2.5312   -2.2508    6.7702 C.3     1  UNL1        0.0000
     14 H           4.5560    0.8333   10.1662 H       1  UNL1        0.0000
     15 H           6.6376    0.9988    8.8598 H       1  UNL1        0.0000
     16 H           7.4764   -0.9673    7.6341 H       1  UNL1        0.0000
     17 H           2.7070   -0.3741   10.9508 H       1  UNL1        0.0000
     18 H           2.1147   -1.6068    9.8234 H       1  UNL1        0.0000
     19 H           3.0287   -2.0994   11.2443 H       1  UNL1        0.0000
     20 H           6.0378   -3.4130    6.4582 H       1  UNL1        0.0000
     21 H           7.4853   -3.4224    7.4598 H       1  UNL1        0.0000
     22 H           6.0482   -4.3620    7.9496 H       1  UNL1        0.0000
     23 H           4.1861   -5.8986    6.8906 H       1  UNL1        0.0000
     24 H           2.7502   -5.6366    5.9267 H       1  UNL1        0.0000
     25 H           4.1616   -4.6409    5.6606 H       1  UNL1        0.0000
     26 H           0.7771   -3.9394    9.1480 H       1  UNL1        0.0000
     27 H           0.5046   -4.6964    7.5882 H       1  UNL1        0.0000
     28 H           1.3743   -5.5622    8.8409 H       1  UNL1        0.0000
     29 H           3.4592   -1.7597    6.4957 H       1  UNL1        0.0000
     30 H           1.9768   -2.4455    5.8592 H       1  UNL1        0.0000
     31 H           1.9545   -1.5464    7.3600 H       1  UNL1        0.0000
@<TRIPOS>BOND
     1    25    11    1
     2    30    13    1
     3    24    11    1
     4    11    23    1
     5    11     1    1
     6    20    10    1
     7    29    13    1
     8    13    31    1
     9    13     1    1
    10    21    10    1
    11    10    22    1
    12    10     8    1
    13    27    12    1
    14    16     7    1
    15     1    12    1
    16     1     2    1
    17     7     8   ar
    18     7     6   ar
    19     8     3   ar
    20    12    28    1
    21    12    26    1
    22    15     6    1
    23     6     5   ar
    24     3     2    1
    25     3     4   ar
    26     5     4   ar
    27     5    14    1
    28     4     9    1
    29    18     9    1
    30     9    17    1
    31     9    19    1
