@<TRIPOS>MOLECULE
3
 21 20 0 0 0
SMALL
GASTEIGER

@<TRIPOS>ATOM
      1 SI          0.4736   -0.8224    7.8450 Si      1  UNL1        0.0000
      2 SI          0.9274   -1.2482    4.9495 Si      1  UNL1        0.0000
      3 N           0.5689   -0.1897    6.2505 N.3     1  UNL1        0.0000
      4 C          -0.6028    0.2367    9.0034 C.3     1  UNL1        0.0000
      5 C          -0.1796   -2.6052    7.9732 C.3     1  UNL1        0.0000
      6 C          -0.4910   -2.4112    4.4076 C.3     1  UNL1        0.0000
      7 C           1.3929   -0.2188    3.4145 C.3     1  UNL1        0.0000
      8 H           1.8349   -0.8968    8.4740 H       1  UNL1        0.0000
      9 H           2.0863   -2.1357    5.2423 H       1  UNL1        0.0000
     10 H          -0.3125    1.2807    8.9721 H       1  UNL1        0.0000
     11 H          -0.4871   -0.1010   10.0284 H       1  UNL1        0.0000
     12 H          -1.6592    0.1793    8.7601 H       1  UNL1        0.0000
     13 H           0.4424   -3.2775    7.3933 H       1  UNL1        0.0000
     14 H          -1.1990   -2.7043    7.6139 H       1  UNL1        0.0000
     15 H          -0.1632   -2.9453    9.0034 H       1  UNL1        0.0000
     16 H          -0.7611   -3.0912    5.2067 H       1  UNL1        0.0000
     17 H          -0.1803   -3.0137    3.5595 H       1  UNL1        0.0000
     18 H          -1.3923   -1.8787    4.1136 H       1  UNL1        0.0000
     19 H           2.2106    0.4669    3.6290 H       1  UNL1        0.0000
     20 H           0.5534    0.3729    3.0528 H       1  UNL1        0.0000
     21 H           1.7098   -0.8612    2.5989 H       1  UNL1        0.0000
@<TRIPOS>BOND
     1    21     7    1
     2    20     7    1
     3     7    19    1
     4     7     2    1
     5    17     6    1
     6    18     6    1
     7     6     2    1
     8     6    16    1
     9     2     9    1
    10     2     3    1
    11     3     1    1
    12    13     5    1
    13    14     5    1
    14     1     5    1
    15     1     8    1
    16     1     4    1
    17     5    15    1
    18    12     4    1
    19    10     4    1
    20     4    11    1
