@<TRIPOS>MOLECULE
1
 12 12 0 0 0
SMALL
GASTEIGER

@<TRIPOS>ATOM
      1 N           5.3579    2.1090    7.5026 N.pl3   1  UNL1       -0.1742
      2 N           4.0607    2.3763    7.6664 N.3     1  UNL1       -0.2031
      3 C           3.5948    1.8506    8.8133 C.3     1  UNL1        0.0698
      4 C           4.6445    1.2039    9.4253 C.2     1  UNL1       -0.0467
      5 C           5.7239    1.3974    8.5645 C.2     1  UNL1        0.0284
      6 C           3.3070    3.1353    6.7128 C.3     1  UNL1        0.0076
      7 H           2.5730    1.9634    9.1145 H       1  UNL1        0.0543
      8 H           4.6345    0.6735   10.3544 H       1  UNL1        0.0602
      9 H           6.7347    1.0622    8.6785 H       1  UNL1        0.0811
     10 H           3.5721    4.1921    6.7712 H       1  UNL1        0.0408
     11 H           2.2449    3.0174    6.9186 H       1  UNL1        0.0408
     12 H           3.5301    2.7780    5.7075 H       1  UNL1        0.0408
@<TRIPOS>BOND
     1    12     6    1
     2     6    10    1
     3     6    11    1
     4     6     2    1
     5     1     2    1
     6     1     5    1
     7     2     3    1
     8     5     9    1
     9     5     4    2
    10     3     7    1
    11     3     4    1
    12     4     8    1
