@<TRIPOS>MOLECULE
1
 12 12 0 0 0
SMALL
GASTEIGER

@<TRIPOS>ATOM
      1 N          24.5506    7.5256    5.9909 N.pl3   1  UNL1       -0.2312
      2 N          26.3095    7.2269    4.7003 N.pl3   1  UNL1       -0.3153
      3 C          25.6759    8.0503    5.5582 C.3     1  UNL1        0.1432
      4 C          25.5345    6.1103    4.5841 C.2     1  UNL1        0.0089
      5 C          24.4512    6.3091    5.3878 C.2     1  UNL1        0.0274
      6 C          27.5632    7.4613    4.0428 C.3     1  UNL1        0.0021
      7 H          26.0578    9.0082    5.8481 H       1  UNL1        0.0762
      8 H          25.8123    5.2875    3.9580 H       1  UNL1        0.0794
      9 H          23.6204    5.6599    5.5743 H       1  UNL1        0.0811
     10 H          27.4346    7.4495    2.9583 H       1  UNL1        0.0428
     11 H          28.2862    6.6905    4.3169 H       1  UNL1        0.0428
     12 H          27.9509    8.4326    4.3441 H       1  UNL1        0.0428
@<TRIPOS>BOND
     1    10     6    1
     2     8     4    1
     3     6    11    1
     4     6    12    1
     5     6     2    1
     6     4     2    1
     7     4     5    2
     8     2     3    1
     9     5     9    1
    10     5     1    1
    11     3     7    1
    12     3     1    1
