@<TRIPOS>MOLECULE
1
 12 12 0 0 0
SMALL
GASTEIGER

@<TRIPOS>ATOM
      1 N           5.9416    1.3634    4.6308 N.pl3   1  UNL1       -0.1742
      2 N           6.2071    0.0598    4.5246 N.3     1  UNL1       -0.2031
      3 C           5.6279   -0.4691    3.4321 C.3     1  UNL1        0.0698
      4 C           4.9463    0.5441    2.7969 C.2     1  UNL1       -0.0467
      5 C           5.1764    1.6692    3.5872 C.2     1  UNL1        0.0284
      6 C           7.0148   -0.6395    5.4796 C.3     1  UNL1        0.0076
      7 H           5.7316   -1.5055    3.1815 H       1  UNL1        0.0543
      8 H           4.3706    0.4822    1.8972 H       1  UNL1        0.0602
      9 H           4.8300    2.6713    3.4357 H       1  UNL1        0.0811
     10 H           6.7103   -0.3569    6.4873 H       1  UNL1        0.0408
     11 H           8.0672   -0.3817    5.3509 H       1  UNL1        0.0408
     12 H           6.8862   -1.7114    5.3426 H       1  UNL1        0.0408
@<TRIPOS>BOND
     1     8     4    1
     2     4     3    1
     3     4     5    2
     4     7     3    1
     5     3     2    1
     6     9     5    1
     7     5     1    1
     8     2     1    1
     9     2     6    1
    10    12     6    1
    11    11     6    1
    12     6    10    1
