@<TRIPOS>MOLECULE
1
 12 12 0 0 0
SMALL
GASTEIGER

@<TRIPOS>ATOM
      1 N          22.0002    9.1298    5.9908 N.pl3   1  UNL1       -0.2312
      2 N          20.2412    9.4289    4.7003 N.pl3   1  UNL1       -0.3153
      3 C          20.8747    8.6053    5.5582 C.3     1  UNL1        0.1432
      4 C          21.0165   10.5453    4.5840 C.2     1  UNL1        0.0089
      5 C          22.0998   10.3463    5.3877 C.2     1  UNL1        0.0274
      6 C          18.9874    9.1948    4.0429 C.3     1  UNL1        0.0021
      7 H          20.4926    7.6475    5.8481 H       1  UNL1        0.0762
      8 H          20.7388   11.3681    3.9580 H       1  UNL1        0.0794
      9 H          22.9307   10.9954    5.5742 H       1  UNL1        0.0811
     10 H          19.1159    9.2067    2.9584 H       1  UNL1        0.0428
     11 H          18.2646    9.9657    4.3173 H       1  UNL1        0.0428
     12 H          18.5995    8.2236    4.3442 H       1  UNL1        0.0428
@<TRIPOS>BOND
     1    10     6    1
     2     8     4    1
     3     6    11    1
     4     6    12    1
     5     6     2    1
     6     4     2    1
     7     4     5    2
     8     2     3    1
     9     5     9    1
    10     5     1    1
    11     3     7    1
    12     3     1    1
