@<TRIPOS>MOLECULE
19
 21 20 0 0 0
SMALL
GASTEIGER

@<TRIPOS>ATOM
      1 SI          1.7414    5.3963    5.3117 Si      1  UNL1        0.0000
      2 SI          2.1077    2.5184    6.1339 Si      1  UNL1        0.0000
      3 C           0.5899    6.0408    6.6944 C.3     1  UNL1        0.0000
      4 H          -0.4595    5.9189    6.4449 H       1  UNL1        0.0000
      5 H           0.7603    7.0954    6.8854 H       1  UNL1        0.0000
      6 H           0.7718    5.5049    7.6213 H       1  UNL1        0.0000
      7 C           3.5197    5.8840    5.8034 C.3     1  UNL1        0.0000
      8 H           3.7664    5.4951    6.7853 H       1  UNL1        0.0000
      9 H           3.6402    6.9616    5.8351 H       1  UNL1        0.0000
     10 H           4.2524    5.4900    5.1066 H       1  UNL1        0.0000
     11 C           0.6271    1.4395    6.7002 C.3     1  UNL1        0.0000
     12 H          -0.1093    2.0216    7.2474 H       1  UNL1        0.0000
     13 H           0.9561    0.6400    7.3569 H       1  UNL1        0.0000
     14 H           0.1334    0.9830    5.8419 H       1  UNL1        0.0000
     15 C           3.3967    1.4028    5.2604 C.3     1  UNL1        0.0000
     16 H           2.9342    0.8549    4.4390 H       1  UNL1        0.0000
     17 H           3.8229    0.6763    5.9453 H       1  UNL1        0.0000
     18 H           4.2168    1.9935    4.8600 H       1  UNL1        0.0000
     19 N           1.5698    3.7121    5.0186 N.3     1  UNL1        0.0000
     20 H           2.7388    3.0571    7.3628 H       1  UNL1        0.0000
     21 H           1.4130    6.1314    4.0484 H       1  UNL1        0.0000
@<TRIPOS>BOND
     1    21     1    1
     2    16    15    1
     3    18    15    1
     4    19     1    1
     5    19     2    1
     6    10     7    1
     7    15    17    1
     8    15     2    1
     9     1     7    1
    10     1     3    1
    11     7     9    1
    12     7     8    1
    13    14    11    1
    14     2    11    1
    15     2    20    1
    16     4     3    1
    17     3     5    1
    18     3     6    1
    19    11    12    1
    20    11    13    1
