@<TRIPOS>MOLECULE
24
 24 23 0 0 0
SMALL
GASTEIGER

@<TRIPOS>ATOM
      1 SI          5.4703    6.2984    7.3869 Si      1  UNL1        0.0000
      2 H           4.7429    5.4859    8.4040 H       1  UNL1        0.0000
      3 C           7.7159    5.9210    5.8508 C.3     1  UNL1        0.0000
      4 C           7.1412    7.0374    4.9620 C.3     1  UNL1        0.0000
      5 H           6.3142    6.6511    4.3730 H       1  UNL1        0.0000
      6 H           7.9093    7.4116    4.2885 H       1  UNL1        0.0000
      7 H           6.7865    7.8668    5.5624 H       1  UNL1        0.0000
      8 C           8.2919    4.8532    4.8927 C.3     1  UNL1        0.0000
      9 H           9.0165    4.2329    5.4185 H       1  UNL1        0.0000
     10 H           8.8171    5.3395    4.0707 H       1  UNL1        0.0000
     11 H           7.4798    4.2522    4.4723 H       1  UNL1        0.0000
     12 C           8.8666    6.5026    6.6959 C.3     1  UNL1        0.0000
     13 H           8.5047    7.3408    7.2847 H       1  UNL1        0.0000
     14 H           9.6754    6.8493    6.0554 H       1  UNL1        0.0000
     15 H           9.2495    5.7361    7.3720 H       1  UNL1        0.0000
     16 C           5.9911    7.8981    8.3215 C.3     1  UNL1        0.0000
     17 H           6.7618    7.7115    9.0635 H       1  UNL1        0.0000
     18 H           5.1347    8.3087    8.8468 H       1  UNL1        0.0000
     19 H           6.3578    8.6772    7.6597 H       1  UNL1        0.0000
     20 C           4.0750    6.9013    6.2077 C.3     1  UNL1        0.0000
     21 H           4.3616    7.7537    5.6008 H       1  UNL1        0.0000
     22 H           3.2163    7.2064    6.7977 H       1  UNL1        0.0000
     23 H           3.7366    6.1188    5.5361 H       1  UNL1        0.0000
     24 N           6.7124    5.3097    6.7255 N.3     1  UNL1        0.0000
@<TRIPOS>BOND
     1    10     8    1
     2     6     4    1
     3     5     4    1
     4    11     8    1
     5     8     9    1
     6     8     3    1
     7     4     7    1
     8     4     3    1
     9    23    20    1
    10    21    20    1
    11     3    12    1
    12     3    24    1
    13    14    12    1
    14    20    22    1
    15    20     1    1
    16    12    13    1
    17    12    15    1
    18    24     1    1
    19     1    16    1
    20     1     2    1
    21    19    16    1
    22    16    18    1
    23    16    17    1
