@<TRIPOS>MOLECULE
3
 24 23 0 0 0
SMALL
GASTEIGER

@<TRIPOS>ATOM
      1 SI          7.3702    5.0047   16.8690 Si      1  UNL1        0.0000
      2 H           6.4029    4.1824   16.0682 H       1  UNL1        0.0000
      3 N           8.9001    4.7145   16.1696 N.3     1  UNL1        0.0000
      4 C          11.2426    4.4036   16.8004 C.3     1  UNL1        0.0000
      5 H          10.9889    3.7656   17.6469 H       1  UNL1        0.0000
      6 H          12.1748    4.9176   17.0288 H       1  UNL1        0.0000
      7 H          11.3786    3.7927   15.8996 H       1  UNL1        0.0000
      8 C           9.9606    6.2397   17.8700 C.3     1  UNL1        0.0000
      9 H           9.2171    7.0200   17.7496 H       1  UNL1        0.0000
     10 H          10.9112    6.7049   18.1232 H       1  UNL1        0.0000
     11 H           9.6633    5.5927   18.6886 H       1  UNL1        0.0000
     12 C          10.5094    6.3905   15.4420 C.3     1  UNL1        0.0000
     13 H          10.7089    5.8154   14.5344 H       1  UNL1        0.0000
     14 H          11.3998    6.9568   15.7097 H       1  UNL1        0.0000
     15 H           9.6951    7.0919   15.2592 H       1  UNL1        0.0000
     16 C          10.1078    5.4252   16.5760 C.3     1  UNL1        0.0000
     17 C           7.1496    4.4782   18.7047 C.3     1  UNL1        0.0000
     18 H           7.8107    3.6586   18.9703 H       1  UNL1        0.0000
     19 H           6.1318    4.1472   18.8847 H       1  UNL1        0.0000
     20 H           7.3447    5.2941   19.3935 H       1  UNL1        0.0000
     21 C           6.6969    6.8090   16.7983 C.3     1  UNL1        0.0000
     22 H           7.1774    7.3994   16.0231 H       1  UNL1        0.0000
     23 H           6.8373    7.3328   17.7387 H       1  UNL1        0.0000
     24 H           5.6314    6.8115   16.5922 H       1  UNL1        0.0000
@<TRIPOS>BOND
     1    13    12    1
     2    15    12    1
     3    12    14    1
     4    12    16    1
     5     7     4    1
     6    22    21    1
     7     2     1    1
     8     3    16    1
     9     3     1    1
    10    16     4    1
    11    16     8    1
    12    24    21    1
    13    21     1    1
    14    21    23    1
    15     4     6    1
    16     4     5    1
    17     1    17    1
    18     9     8    1
    19     8    10    1
    20     8    11    1
    21    17    19    1
    22    17    18    1
    23    17    20    1
