@<TRIPOS>MOLECULE
1
 21 20 0 0 0
SMALL
GASTEIGER

@<TRIPOS>ATOM
      1 N           8.2848    7.5860    4.9422 N.3     1  UNL1        0.0000
      2 SI          8.3274    9.0024    5.9192 Si      1  UNL1        0.0000
      3 SI          9.2905    6.2412    5.3073 Si      1  UNL1        0.0000
      4 C          10.0647    9.7103    6.3013 C.3     1  UNL1        0.0000
      5 C           7.5366    8.7638    7.6438 C.3     1  UNL1        0.0000
      6 C           9.5883    5.8758    7.1524 C.3     1  UNL1        0.0000
      7 C          11.0184    6.3704    4.4974 C.3     1  UNL1        0.0000
      8 H           8.6144    5.0067    4.7773 H       1  UNL1        0.0000
      9 H           7.5678   10.0774    5.2107 H       1  UNL1        0.0000
     10 H           9.9933   10.6545    6.8335 H       1  UNL1        0.0000
     11 H          10.6555    9.8803    5.4074 H       1  UNL1        0.0000
     12 H          10.6241    9.0256    6.9310 H       1  UNL1        0.0000
     13 H           8.2702    8.4194    8.3649 H       1  UNL1        0.0000
     14 H           6.7346    8.0337    7.6219 H       1  UNL1        0.0000
     15 H           7.1277    9.6967    8.0195 H       1  UNL1        0.0000
     16 H           8.6524    5.8020    7.6950 H       1  UNL1        0.0000
     17 H          10.1769    6.6574    7.6198 H       1  UNL1        0.0000
     18 H          10.1225    4.9402    7.2851 H       1  UNL1        0.0000
     19 H          10.9438    6.5707    3.4320 H       1  UNL1        0.0000
     20 H          11.5813    5.4507    4.6216 H       1  UNL1        0.0000
     21 H          11.6010    7.1697    4.9470 H       1  UNL1        0.0000
@<TRIPOS>BOND
     1    19     7    1
     2     7    20    1
     3     7    21    1
     4     7     3    1
     5     8     3    1
     6     1     3    1
     7     1     2    1
     8     9     2    1
     9     3     6    1
    10    11     4    1
    11     2     4    1
    12     2     5    1
    13     4    10    1
    14     4    12    1
    15     6    18    1
    16     6    17    1
    17     6    16    1
    18    14     5    1
    19     5    15    1
    20     5    13    1
