@<TRIPOS>MOLECULE
3
 27 26 0 0 0
SMALL
GASTEIGER

@<TRIPOS>ATOM
      1 SI          0.4812    9.3938   12.2399 Si      1  UNL1        0.0000
      2 SI          3.1623   10.6697   11.5476 Si      1  UNL1        0.0000
      3 N           2.1238    9.7740   12.5819 N.3     1  UNL1        0.0000
      4 C           4.8013   10.9104   12.5380 C.3     1  UNL1        0.0000
      5 H           4.7371   10.4790   13.5530 H       1  UNL1        0.0000
      6 H           5.0669   11.9586   12.6396 H       1  UNL1        0.0000
      7 H           5.6253   10.4177   12.0338 H       1  UNL1        0.0000
      8 C           0.0337    9.1729   10.4009 C.3     1  UNL1        0.0000
      9 H           0.1729   10.1034    9.8624 H       1  UNL1        0.0000
     10 H          -0.9991    8.8663   10.2718 H       1  UNL1        0.0000
     11 H           0.6647    8.4248    9.9346 H       1  UNL1        0.0000
     12 C           0.1090    7.7407   13.1510 C.3     1  UNL1        0.0000
     13 H           0.5261    6.9016   12.6002 H       1  UNL1        0.0000
     14 H          -0.9593    7.5686   13.2429 H       1  UNL1        0.0000
     15 H           0.5340    7.7320   14.1646 H       1  UNL1        0.0000
     16 C           2.4879   12.4077   11.1037 C.3     1  UNL1        0.0000
     17 H           1.5442   12.3127   10.5778 H       1  UNL1        0.0000
     18 H           3.1724   12.9446   10.4550 H       1  UNL1        0.0000
     19 H           2.3121   13.0235   11.9804 H       1  UNL1        0.0000
     20 C           3.6130    9.8058    9.9062 C.3     1  UNL1        0.0000
     21 H           3.8895    8.7699   10.0756 H       1  UNL1        0.0000
     22 H           4.4459   10.2959    9.4112 H       1  UNL1        0.0000
     23 H           2.7719    9.8160    9.2223 H       1  UNL1        0.0000
     24 C          -0.7181   10.7184   12.9559 C.3     1  UNL1        0.0000
     25 H          -0.7010   10.7389   14.0427 H       1  UNL1        0.0000
     26 H          -1.7420   10.5263   12.6521 H       1  UNL1        0.0000
     27 H          -0.4530   11.7092   12.6008 H       1  UNL1        0.0000
@<TRIPOS>BOND
     1    23    20    1
     2    22    20    1
     3     9     8    1
     4    20    21    1
     5    20     2    1
     6    11     8    1
     7    10     8    1
     8     8     1    1
     9    18    16    1
    10    17    16    1
    11    16     2    1
    12    16    19    1
    13     2     4    1
    14     2     3    1
    15     7     4    1
    16     1     3    1
    17     1    24    1
    18     1    12    1
    19     4     6    1
    20     4     5    1
    21    13    12    1
    22    27    24    1
    23    26    24    1
    24    24    25    1
    25    12    14    1
    26    12    15    1
