@<TRIPOS>MOLECULE
3
 27 26 0 0 0
SMALL
GASTEIGER

@<TRIPOS>ATOM
      1 SI          3.3528    4.7612   17.3715 Si      1  UNL1        0.0000
      2 SI          5.7349    3.2928   16.1742 Si      1  UNL1        0.0000
      3 N           4.0891    3.7908   16.1676 N.3     1  UNL1        0.0000
      4 C           1.5257    5.0235   16.7828 C.3     1  UNL1        0.0000
      5 H           1.3339    4.5891   15.7835 H       1  UNL1        0.0000
      6 H           1.2739    6.0789   16.7309 H       1  UNL1        0.0000
      7 H           0.8334    4.5624   17.4797 H       1  UNL1        0.0000
      8 C           5.8221    1.5930   15.2901 C.3     1  UNL1        0.0000
      9 H           5.4778    0.8046   15.9535 H       1  UNL1        0.0000
     10 H           6.8405    1.3518   15.0007 H       1  UNL1        0.0000
     11 H           5.2060    1.5704   14.3847 H       1  UNL1        0.0000
     12 C           3.2561    4.0014   19.1234 C.3     1  UNL1        0.0000
     13 H           2.9801    2.9531   19.0752 H       1  UNL1        0.0000
     14 H           2.5289    4.5115   19.7481 H       1  UNL1        0.0000
     15 H           4.2175    4.0654   19.6199 H       1  UNL1        0.0000
     16 C           6.8574    4.5206   15.2067 C.3     1  UNL1        0.0000
     17 H           6.7349    4.4300   14.1316 H       1  UNL1        0.0000
     18 H           7.9052    4.3458   15.4277 H       1  UNL1        0.0000
     19 H           6.6322    5.5460   15.4810 H       1  UNL1        0.0000
     20 C           4.1400    6.4985   17.5681 C.3     1  UNL1        0.0000
     21 H           5.1886    6.3973   17.8247 H       1  UNL1        0.0000
     22 H           3.6616    7.0668   18.3592 H       1  UNL1        0.0000
     23 H           4.0824    7.0880   16.6582 H       1  UNL1        0.0000
     24 C           6.5266    3.0880   17.8969 C.3     1  UNL1        0.0000
     25 H           6.5756    4.0419   18.4100 H       1  UNL1        0.0000
     26 H           7.5353    2.6933   17.8331 H       1  UNL1        0.0000
     27 H           5.9431    2.4123   18.5118 H       1  UNL1        0.0000
@<TRIPOS>BOND
     1    17    16    1
     2    11     8    1
     3    10     8    1
     4    16    18    1
     5    16    19    1
     6    16     2    1
     7     8     9    1
     8     8     2    1
     9     5     4    1
    10     3     2    1
    11     3     1    1
    12     2    24    1
    13    23    20    1
    14     6     4    1
    15     4     1    1
    16     4     7    1
    17     1    20    1
    18     1    12    1
    19    20    21    1
    20    20    22    1
    21    26    24    1
    22    24    25    1
    23    24    27    1
    24    13    12    1
    25    12    15    1
    26    12    14    1
