@<TRIPOS>MOLECULE
3
 27 26 0 0 0
SMALL
GASTEIGER

@<TRIPOS>ATOM
      1 SI         11.1010    3.9014   11.7727 Si      1  UNL1        0.0000
      2 SI         13.8682    4.7354   12.5935 Si      1  UNL1        0.0000
      3 N          12.6448    3.5017   12.4611 N.3     1  UNL1        0.0000
      4 C           9.9207    2.4321   12.0613 C.3     1  UNL1        0.0000
      5 C          10.2936    5.4824   12.5083 C.3     1  UNL1        0.0000
      6 C          11.0732    4.2184    9.8739 C.3     1  UNL1        0.0000
      7 C          13.9386    5.9178   11.0874 C.3     1  UNL1        0.0000
      8 C          13.6654    5.8634   14.1396 C.3     1  UNL1        0.0000
      9 C          15.5989    3.9316   12.7330 C.3     1  UNL1        0.0000
     10 H           9.6615    2.3308   13.1095 H       1  UNL1        0.0000
     11 H          10.3860    1.5013   11.7443 H       1  UNL1        0.0000
     12 H           9.0011    2.5551   11.4982 H       1  UNL1        0.0000
     13 H          10.1619    5.4233   13.5829 H       1  UNL1        0.0000
     14 H           9.3144    5.6479   12.0695 H       1  UNL1        0.0000
     15 H          10.8952    6.3609   12.2986 H       1  UNL1        0.0000
     16 H          11.8841    4.8574    9.5463 H       1  UNL1        0.0000
     17 H          10.1449    4.7122    9.6027 H       1  UNL1        0.0000
     18 H          11.1282    3.2997    9.2997 H       1  UNL1        0.0000
     19 H          13.0124    6.4654   10.9628 H       1  UNL1        0.0000
     20 H          14.1414    5.3888   10.1623 H       1  UNL1        0.0000
     21 H          14.7312    6.6453   11.2252 H       1  UNL1        0.0000
     22 H          13.8111    5.2889   15.0506 H       1  UNL1        0.0000
     23 H          12.6875    6.3307   14.1915 H       1  UNL1        0.0000
     24 H          14.4059    6.6581   14.1302 H       1  UNL1        0.0000
     25 H          15.5208    2.8525   12.6268 H       1  UNL1        0.0000
     26 H          16.0341    4.1405   13.7058 H       1  UNL1        0.0000
     27 H          16.2883    4.3067   11.9829 H       1  UNL1        0.0000
@<TRIPOS>BOND
     1    18     6    1
     2    16     6    1
     3    17     6    1
     4     6     1    1
     5    20     7    1
     6    19     7    1
     7     7    21    1
     8     7     2    1
     9    12     4    1
    10    11     4    1
    11     1     4    1
    12     1     3    1
    13     1     5    1
    14    27     9    1
    15     4    10    1
    16    14     5    1
    17    15     5    1
    18     3     2    1
    19     5    13    1
    20     2     9    1
    21     2     8    1
    22    25     9    1
    23     9    26    1
    24    24     8    1
    25     8    23    1
    26     8    22    1
