@<TRIPOS>MOLECULE
3
 27 26 0 0 0
SMALL
GASTEIGER

@<TRIPOS>ATOM
      1 SI         10.9572   -0.5649   13.9519 Si      1  UNL1        0.0000
      2 SI         11.1101    1.7959   15.7911 Si      1  UNL1        0.0000
      3 N          11.5988    1.0066   14.3160 N.3     1  UNL1        0.0000
      4 C           9.1108   -0.6122   13.4084 C.3     1  UNL1        0.0000
      5 C          11.0274   -1.8054   15.4185 C.3     1  UNL1        0.0000
      6 C          11.9460   -1.3106   12.5009 C.3     1  UNL1        0.0000
      7 C          12.1547    1.2595   17.3160 C.3     1  UNL1        0.0000
      8 C           9.2787    1.5043   16.2728 C.3     1  UNL1        0.0000
      9 C          11.3108    3.6915   15.6141 C.3     1  UNL1        0.0000
     10 H           8.4863    0.0330   14.0142 H       1  UNL1        0.0000
     11 H           8.7266   -1.6227   13.5113 H       1  UNL1        0.0000
     12 H           8.9732   -0.3203   12.3726 H       1  UNL1        0.0000
     13 H          12.0176   -1.8878   15.8515 H       1  UNL1        0.0000
     14 H          10.7307   -2.7975   15.0920 H       1  UNL1        0.0000
     15 H          10.3488   -1.5098   16.2117 H       1  UNL1        0.0000
     16 H          12.9755   -1.4986   12.7866 H       1  UNL1        0.0000
     17 H          11.9540   -0.6381   11.6464 H       1  UNL1        0.0000
     18 H          11.5074   -2.2501   12.1793 H       1  UNL1        0.0000
     19 H          12.1094    0.1898   17.4938 H       1  UNL1        0.0000
     20 H          11.7986    1.7535   18.2155 H       1  UNL1        0.0000
     21 H          13.1979    1.5346   17.1804 H       1  UNL1        0.0000
     22 H           9.0579    0.4533   16.4110 H       1  UNL1        0.0000
     23 H           8.5941    1.8924   15.5261 H       1  UNL1        0.0000
     24 H           9.0581    2.0099   17.2068 H       1  UNL1        0.0000
     25 H          11.7469    3.9286   14.6465 H       1  UNL1        0.0000
     26 H          11.9732    4.0777   16.3830 H       1  UNL1        0.0000
     27 H          10.3640    4.2142   15.7091 H       1  UNL1        0.0000
@<TRIPOS>BOND
     1    17     6    1
     2    18     6    1
     3    12     4    1
     4     6    16    1
     5     6     1    1
     6     4    11    1
     7     4     1    1
     8     4    10    1
     9     1     3    1
    10     1     5    1
    11     3     2    1
    12    25     9    1
    13    14     5    1
    14     5    13    1
    15     5    15    1
    16    23     8    1
    17     9    27    1
    18     9     2    1
    19     9    26    1
    20     2     8    1
    21     2     7    1
    22     8    22    1
    23     8    24    1
    24    21     7    1
    25     7    19    1
    26     7    20    1
