@<TRIPOS>MOLECULE
3
 27 26 0 0 0
SMALL
GASTEIGER

@<TRIPOS>ATOM
      1 SI         14.6841    0.6312   10.8917 Si      1  UNL1        0.0000
      2 SI         15.4795    0.0003   13.7268 Si      1  UNL1        0.0000
      3 N          14.3800    0.7428   12.5966 N.3     1  UNL1        0.0000
      4 C          13.3323    1.6273    9.9870 C.3     1  UNL1        0.0000
      5 C          16.3882    1.3343   10.3452 C.3     1  UNL1        0.0000
      6 C          14.6537   -1.1393   10.1391 C.3     1  UNL1        0.0000
      7 C          16.3702   -1.5495   13.0422 C.3     1  UNL1        0.0000
      8 C          16.8864    1.1570   14.3476 C.3     1  UNL1        0.0000
      9 C          14.5030   -0.5716   15.2712 C.3     1  UNL1        0.0000
     10 H          13.4415    2.6873   10.1894 H       1  UNL1        0.0000
     11 H          12.3363    1.3269   10.3056 H       1  UNL1        0.0000
     12 H          13.3945    1.4829    8.9131 H       1  UNL1        0.0000
     13 H          17.1826    1.0038   11.0070 H       1  UNL1        0.0000
     14 H          16.3998    2.4191   10.3321 H       1  UNL1        0.0000
     15 H          16.6368    0.9945    9.3443 H       1  UNL1        0.0000
     16 H          15.6122   -1.6321   10.2521 H       1  UNL1        0.0000
     17 H          14.4471   -1.0822    9.0745 H       1  UNL1        0.0000
     18 H          13.9013   -1.7815   10.5812 H       1  UNL1        0.0000
     19 H          17.0361   -1.2999   12.2251 H       1  UNL1        0.0000
     20 H          15.6722   -2.2969   12.6842 H       1  UNL1        0.0000
     21 H          16.9685   -2.0080   13.8223 H       1  UNL1        0.0000
     22 H          16.4770    1.9912   14.9104 H       1  UNL1        0.0000
     23 H          17.4839    1.5616   13.5365 H       1  UNL1        0.0000
     24 H          17.5589    0.6137   15.0054 H       1  UNL1        0.0000
     25 H          13.5721   -0.0131   15.3422 H       1  UNL1        0.0000
     26 H          15.0738   -0.3973   16.1783 H       1  UNL1        0.0000
     27 H          14.2704   -1.6315   15.2336 H       1  UNL1        0.0000
@<TRIPOS>BOND
     1    12     4    1
     2    17     6    1
     3    15     5    1
     4     4    10    1
     5     4    11    1
     6     4     1    1
     7     6    16    1
     8     6    18    1
     9     6     1    1
    10    14     5    1
    11     5     1    1
    12     5    13    1
    13     1     3    1
    14    19     7    1
    15     3     2    1
    16    20     7    1
    17     7     2    1
    18     7    21    1
    19    23     8    1
    20     2     8    1
    21     2     9    1
    22     8    22    1
    23     8    24    1
    24    27     9    1
    25     9    25    1
    26     9    26    1
