@<TRIPOS>MOLECULE
1
 28 29 0 0 0
SMALL
GASTEIGER

@<TRIPOS>ATOM
      1 N           1.7249   18.7330    2.8241 N.ar    1  UNL1       -0.2550
      2 C           1.7864   20.0898    2.9896 C.ar    1  UNL1        0.0283
      3 H           0.9491   20.6333    3.3974 H       1  UNL1        0.0830
      4 C           3.0050   20.5702    2.5950 C.ar    1  UNL1       -0.0416
      5 H           3.3318   21.5920    2.6147 H       1  UNL1        0.0633
      6 C           3.7516   19.4557    2.1582 C.ar    1  UNL1       -0.0343
      7 H           4.7535   19.4588    1.7705 H       1  UNL1        0.0639
      8 C           2.9430   18.3554    2.3143 C.ar    1  UNL1        0.0715
      9 C           3.2175   16.9654    1.9011 C.ar    1  UNL1        0.0062
     10 C           3.9780   16.1145    2.7048 C.ar    1  UNL1       -0.0408
     11 C           4.3084   14.8505    2.2341 C.ar    1  UNL1       -0.0553
     12 H           4.9144   14.1974    2.8467 H       1  UNL1        0.0623
     13 C           3.8977   14.4176    0.9826 C.ar    1  UNL1       -0.0499
     14 C           3.1543   15.2828    0.1879 C.ar    1  UNL1       -0.0553
     15 H           2.8498   14.9595   -0.7987 H       1  UNL1        0.0623
     16 C           2.8167   16.5530    0.6244 C.ar    1  UNL1       -0.0408
     17 C           4.4588   16.5916    4.0469 C.3     1  UNL1       -0.0391
     18 H           5.0781   17.4806    3.9291 H       1  UNL1        0.0278
     19 H           5.0397   15.8240    4.5543 H       1  UNL1        0.0278
     20 H           3.6136   16.8666    4.6853 H       1  UNL1        0.0278
     21 C           4.2429   13.0459    0.4834 C.3     1  UNL1       -0.0397
     22 H           3.3462   12.4280    0.4231 H       1  UNL1        0.0278
     23 H           4.9534   12.5565    1.1449 H       1  UNL1        0.0278
     24 H           4.6743   13.1010   -0.5145 H       1  UNL1        0.0278
     25 C           2.0614   17.5078   -0.2479 C.3     1  UNL1       -0.0391
     26 H           1.8656   17.0759   -1.2268 H       1  UNL1        0.0278
     27 H           2.6349   18.4258   -0.3750 H       1  UNL1        0.0278
     28 H           1.1144   17.7690    0.2292 H       1  UNL1        0.0278
@<TRIPOS>BOND
     1    26    25    1
     2    15    14    1
     3    24    21    1
     4    27    25    1
     5    25    28    1
     6    25    16    1
     7    14    16   ar
     8    14    13   ar
     9    22    21    1
    10    21    13    1
    11    21    23    1
    12    16     9   ar
    13    13    11   ar
    14     7     6    1
    15     9     8    1
    16     9    10   ar
    17     6     8   ar
    18     6     4   ar
    19    11    10   ar
    20    11    12    1
    21     8     1   ar
    22     4     5    1
    23     4     2   ar
    24    10    17    1
    25     1     2   ar
    26     2     3    1
    27    18    17    1
    28    17    19    1
    29    17    20    1
