@<TRIPOS>MOLECULE
3
 21 20 0 0 0
SMALL
GASTEIGER

@<TRIPOS>ATOM
      1 SI          1.8062   -1.8361    1.8390 Si      1  UNL1        0.0000
      2 SI          4.5478   -0.7845    1.1150 Si      1  UNL1        0.0000
      3 N           3.1463   -0.7964    2.1139 N.3     1  UNL1        0.0000
      4 C           2.2499   -3.6704    1.5535 C.3     1  UNL1        0.0000
      5 C           0.7184   -1.2751    0.3631 C.3     1  UNL1        0.0000
      6 C           5.8760   -2.0389    1.6946 C.3     1  UNL1        0.0000
      7 C           4.2312   -1.1367   -0.7333 C.3     1  UNL1        0.0000
      8 H           0.9228   -1.8179    3.0518 H       1  UNL1        0.0000
      9 H           1.3617   -4.2828    1.4335 H       1  UNL1        0.0000
     10 H           2.8115   -4.0615    2.3957 H       1  UNL1        0.0000
     11 H           2.8584   -3.7973    0.6645 H       1  UNL1        0.0000
     12 H          -0.2880   -1.6778    0.4285 H       1  UNL1        0.0000
     13 H           1.1396   -1.6060   -0.5798 H       1  UNL1        0.0000
     14 H           0.6436   -0.1923    0.3205 H       1  UNL1        0.0000
     15 H           5.1693    0.5772    1.1672 H       1  UNL1        0.0000
     16 H           6.8265   -1.8755    1.1956 H       1  UNL1        0.0000
     17 H           6.0384   -1.9601    2.7659 H       1  UNL1        0.0000
     18 H           5.5691   -3.0591    1.4872 H       1  UNL1        0.0000
     19 H           5.1475   -1.0608   -1.3099 H       1  UNL1        0.0000
     20 H           3.8265   -2.1305   -0.8903 H       1  UNL1        0.0000
     21 H           3.5241   -0.4240   -1.1430 H       1  UNL1        0.0000
@<TRIPOS>BOND
     1    19     7    1
     2    21     7    1
     3    20     7    1
     4     7     2    1
     5    13     5    1
     6    14     5    1
     7     5    12    1
     8     5     1    1
     9    11     4    1
    10     2    15    1
    11     2     6    1
    12     2     3    1
    13    16     6    1
    14     9     4    1
    15    18     6    1
    16     4     1    1
    17     4    10    1
    18     6    17    1
    19     1     3    1
    20     1     8    1
