@<TRIPOS>MOLECULE
3
 21 20 0 0 0
SMALL
GASTEIGER

@<TRIPOS>ATOM
      1 SI          2.7716    3.0315    1.7265 Si      1  UNL1        0.0000
      2 SI          3.2427    3.6982    4.6702 Si      1  UNL1        0.0000
      3 N           3.1203    2.5966    3.3563 N.3     1  UNL1        0.0000
      4 C           4.3090    3.6670    0.7789 C.3     1  UNL1        0.0000
      5 C           1.4633    4.4174    1.5279 C.3     1  UNL1        0.0000
      6 C           1.5457    4.1341    5.4393 C.3     1  UNL1        0.0000
      7 C           4.0996    5.3573    4.2550 C.3     1  UNL1        0.0000
      8 H           2.2292    1.8430    1.0056 H       1  UNL1        0.0000
      9 H           4.0387    3.9874   -0.2221 H       1  UNL1        0.0000
     10 H           4.7685    4.5135    1.2801 H       1  UNL1        0.0000
     11 H           5.0593    2.8892    0.6797 H       1  UNL1        0.0000
     12 H           1.2960    4.6419    0.4795 H       1  UNL1        0.0000
     13 H           1.7851    5.3342    2.0093 H       1  UNL1        0.0000
     14 H           0.5048    4.1433    1.9573 H       1  UNL1        0.0000
     15 H           4.0855    3.0700    5.7387 H       1  UNL1        0.0000
     16 H           1.6620    4.7275    6.3404 H       1  UNL1        0.0000
     17 H           0.9291    4.7023    4.7493 H       1  UNL1        0.0000
     18 H           1.0059    3.2309    5.7078 H       1  UNL1        0.0000
     19 H           4.1841    5.9852    5.1361 H       1  UNL1        0.0000
     20 H           5.1010    5.2017    3.8661 H       1  UNL1        0.0000
     21 H           3.5449    5.9146    3.5088 H       1  UNL1        0.0000
@<TRIPOS>BOND
     1     9     4    1
     2    12     5    1
     3    11     4    1
     4     4    10    1
     5     4     1    1
     6     8     1    1
     7     5     1    1
     8     5    14    1
     9     5    13    1
    10     1     3    1
    11     3     2    1
    12    21     7    1
    13    20     7    1
    14     7     2    1
    15     7    19    1
    16     2     6    1
    17     2    15    1
    18    17     6    1
    19     6    18    1
    20     6    16    1
