@<TRIPOS>MOLECULE
3
 21 20 0 0 0
SMALL
GASTEIGER

@<TRIPOS>ATOM
      1 SI          3.6698   -2.3419    5.6786 Si      1  UNL1        0.0000
      2 SI          3.0488    0.2024    7.2457 Si      1  UNL1        0.0000
      3 N           3.3403   -0.6545    5.7832 N.3     1  UNL1        0.0000
      4 C           4.8652   -2.9920    7.0262 C.3     1  UNL1        0.0000
      5 C           2.1030   -3.4345    5.7920 C.3     1  UNL1        0.0000
      6 C           2.1042   -0.7755    8.5908 C.3     1  UNL1        0.0000
      7 C           4.6564    0.8333    8.0725 C.3     1  UNL1        0.0000
      8 H           4.3373   -2.6178    4.3734 H       1  UNL1        0.0000
      9 H           5.0331   -4.0580    6.9127 H       1  UNL1        0.0000
     10 H           4.4681   -2.8286    8.0217 H       1  UNL1        0.0000
     11 H           5.8339   -2.5039    6.9781 H       1  UNL1        0.0000
     12 H           2.3607   -4.4877    5.7436 H       1  UNL1        0.0000
     13 H           1.5666   -3.2723    6.7221 H       1  UNL1        0.0000
     14 H           1.4251   -3.2276    4.9697 H       1  UNL1        0.0000
     15 H           2.2041    1.4011    6.9528 H       1  UNL1        0.0000
     16 H           1.9075   -0.1533    9.4580 H       1  UNL1        0.0000
     17 H           2.6698   -1.6362    8.9292 H       1  UNL1        0.0000
     18 H           1.1492   -1.1373    8.2236 H       1  UNL1        0.0000
     19 H           4.4408    1.3348    9.0105 H       1  UNL1        0.0000
     20 H           5.3455    0.0215    8.2854 H       1  UNL1        0.0000
     21 H           5.1624    1.5467    7.4299 H       1  UNL1        0.0000
@<TRIPOS>BOND
     1     8     1    1
     2    14     5    1
     3     1     3    1
     4     1     5    1
     5     1     4    1
     6    12     5    1
     7     3     2    1
     8     5    13    1
     9     9     4    1
    10    15     2    1
    11    11     4    1
    12     4    10    1
    13     2     7    1
    14     2     6    1
    15    21     7    1
    16     7    20    1
    17     7    19    1
    18    18     6    1
    19     6    17    1
    20     6    16    1
