@<TRIPOS>MOLECULE
2
 13 13 0 0 0
SMALL
GASTEIGER

@<TRIPOS>ATOM
      1 BR         -2.9605   10.3803    7.7694 Br      1  UNL1       -0.0503
      2 N           3.0628   10.1403    8.4559 N.pl3   1  UNL1       -0.2666
      3 H           3.3400   10.6457    9.3001 H       1  UNL1        0.1699
      4 C           1.7186   10.2053    8.3229 C.ar    1  UNL1        0.0444
      5 C           1.0767    9.5764    7.2335 C.ar    1  UNL1       -0.0383
      6 H           1.6892    9.0409    6.5068 H       1  UNL1        0.0637
      7 C          -0.2887    9.6258    7.0713 C.ar    1  UNL1       -0.0460
      8 H          -0.7580    9.1366    6.2301 H       1  UNL1        0.0629
      9 C          -1.0620   10.3119    7.9946 C.ar    1  UNL1        0.0180
     10 C          -0.4741   10.9475    9.0764 C.ar    1  UNL1       -0.0460
     11 H          -1.0861   11.4806    9.7888 H       1  UNL1        0.0629
     12 C           0.8914   10.8949    9.2368 C.ar    1  UNL1       -0.0383
     13 H           1.3483   11.3904   10.0831 H       1  UNL1        0.0637
@<TRIPOS>BOND
     1     8     7    1
     2     6     5    1
     3     7     5   ar
     4     7     9   ar
     5     5     4   ar
     6     1     9    1
     7     9    10   ar
     8     4     2    1
     9     4    12   ar
    10     2     3    1
    11    10    12   ar
    12    10    11    1
    13    12    13    1
