@<TRIPOS>MOLECULE
1
 15 14 0 0 0
SMALL
GASTEIGER

@<TRIPOS>ATOM
      1 N          -0.0147    5.5347    1.9786 N.3     1  UNL1       -0.2409
      2 C          -0.7497    5.4301    0.7269 C.3     1  UNL1        0.0111
      3 H          -0.3506    4.5972    0.1315 H       1  UNL1        0.0438
      4 H          -0.6387    6.3500    0.1290 H       1  UNL1        0.0438
      5 C          -2.2529    5.1813    0.9494 C.3     1  UNL1       -0.0510
      6 H          -2.3870    4.2840    1.5509 H       1  UNL1        0.0242
      7 H          -2.7628    5.0504   -0.0022 H       1  UNL1        0.0242
      8 H          -2.7065    6.0204    1.4731 H       1  UNL1        0.0242
      9 C          -0.0281    6.8999    2.4809 C.3     1  UNL1        0.0111
     10 H          -0.9523    7.4156    2.1762 H       1  UNL1        0.0438
     11 H          -0.0051    6.8961    3.5818 H       1  UNL1        0.0438
     12 C           1.1683    7.7352    1.9844 C.3     1  UNL1       -0.0510
     13 H           2.1024    7.2573    2.2797 H       1  UNL1        0.0242
     14 H           1.1344    8.7375    2.4072 H       1  UNL1        0.0242
     15 H           1.1466    7.8161    0.8992 H       1  UNL1        0.0242
@<TRIPOS>BOND
     1     7     5    1
     2     4     2    1
     3     3     2    1
     4     2     5    1
     5     2     1    1
     6    15    12    1
     7     5     8    1
     8     5     6    1
     9     1     9    1
    10    12    13    1
    11    12    14    1
    12    12     9    1
    13    10     9    1
    14     9    11    1
