@<TRIPOS>MOLECULE
1
 9 9 0 0 0
SMALL
GASTEIGER

@<TRIPOS>ATOM
      1 N           0.6313    0.0271    5.7449 N.ar    1  UNL1       -0.2633
      2 C          -0.6990    0.3316    5.8366 C.ar    1  UNL1        0.0276
      3 H          -1.2267    0.7935    5.0173 H       1  UNL1        0.0829
      4 C          -1.2011   -0.0257    7.0651 C.ar    1  UNL1       -0.0422
      5 H          -2.2139    0.0904    7.4046 H       1  UNL1        0.0633
      6 C          -0.1246   -0.5701    7.7882 C.ar    1  UNL1       -0.0422
      7 H          -0.1482   -0.9517    8.7920 H       1  UNL1        0.0633
      8 C           0.9681   -0.5126    6.9570 C.ar    1  UNL1        0.0276
      9 H           1.9833   -0.8031    7.1808 H       1  UNL1        0.0829
@<TRIPOS>BOND
     1     3     2    1
     2     1     2   ar
     3     1     8   ar
     4     2     4   ar
     5     8     9    1
     6     8     6   ar
     7     4     5    1
     8     4     6   ar
     9     6     7    1
