@<TRIPOS>MOLECULE
38
 40 40 0 0 0
SMALL
GASTEIGER

@<TRIPOS>ATOM
      1 C           0.1322    9.2827   28.5140 C.3     1  UNL1        0.0000
      2 H          -0.3432    9.2943   27.5371 H       1  UNL1        0.0000
      3 H           0.2552   10.3113   28.8387 H       1  UNL1        0.0000
      4 H          -0.5560    8.8098   29.2065 H       1  UNL1        0.0000
      5 C           3.1990    9.6295   28.6838 C.3     1  UNL1        0.0000
      6 H           4.0360    9.4064   28.0261 H       1  UNL1        0.0000
      7 H           3.5676    9.6133   29.7033 H       1  UNL1        0.0000
      8 H           2.8796   10.6464   28.4780 H       1  UNL1        0.0000
      9 C           1.0241    7.5123   26.0248 C.ar    1  UNL1        0.0000
     10 C           1.2450    8.4220   24.9615 C.ar    1  UNL1        0.0000
     11 C           2.4542    9.3352   24.9607 C.3     1  UNL1        0.0000
     12 H           3.2226    8.8954   25.6321 H       1  UNL1        0.0000
     13 C           3.0823    9.4992   23.5755 C.3     1  UNL1        0.0000
     14 H           3.2563    8.5274   23.1208 H       1  UNL1        0.0000
     15 H           4.0362   10.0141   23.6654 H       1  UNL1        0.0000
     16 H           2.4437   10.0840   22.9165 H       1  UNL1        0.0000
     17 C           2.0453   10.7102   25.4987 C.3     1  UNL1        0.0000
     18 H           1.3303   11.1751   24.8213 H       1  UNL1        0.0000
     19 H           2.9157   11.3575   25.5834 H       1  UNL1        0.0000
     20 H           1.5792   10.6164   26.4742 H       1  UNL1        0.0000
     21 C           0.3095    8.5319   23.9444 C.ar    1  UNL1        0.0000
     22 H           0.4781    9.2289   23.1371 H       1  UNL1        0.0000
     23 C          -0.8516    7.7812   23.9470 C.ar    1  UNL1        0.0000
     24 H          -1.5664    7.8769   23.1428 H       1  UNL1        0.0000
     25 C          -1.0974    6.9296   25.0061 C.ar    1  UNL1        0.0000
     26 H          -2.0200    6.3674   25.0277 H       1  UNL1        0.0000
     27 C          -0.1935    6.7961   26.0495 C.ar    1  UNL1        0.0000
     28 C          -0.5419    5.8951   27.2116 C.3     1  UNL1        0.0000
     29 H           0.2145    6.0633   27.9834 H       1  UNL1        0.0000
     30 C          -1.9091    6.2379   27.8082 C.3     1  UNL1        0.0000
     31 H          -1.9764    7.3002   28.0237 H       1  UNL1        0.0000
     32 H          -2.0579    5.6862   28.7343 H       1  UNL1        0.0000
     33 H          -2.7143    5.9745   27.1263 H       1  UNL1        0.0000
     34 C          -0.5077    4.4230   26.7923 C.3     1  UNL1        0.0000
     35 H          -1.2518    4.2285   26.0213 H       1  UNL1        0.0000
     36 H          -0.7271    3.7771   27.6409 H       1  UNL1        0.0000
     37 H           0.4746    4.1635   26.4047 H       1  UNL1        0.0000
     38 N           1.9731    7.3588   27.0597 N.pl3   1  UNL1        0.0000
     39 SI          1.7979    8.3434   28.4613 Si      1  UNL1        0.0000
     40 H           1.8290    7.4435   29.6497 H       1  UNL1        0.0000
@<TRIPOS>BOND
     1    16    13    1
     2    14    13    1
     3    22    21    1
     4    24    23    1
     5    13    15    1
     6    13    11    1
     7    21    23   ar
     8    21    10   ar
     9    23    25   ar
    10    18    17    1
    11    11    10    1
    12    11    17    1
    13    11    12    1
    14    10     9   ar
    15    25    26    1
    16    25    27   ar
    17    17    19    1
    18    17    20    1
    19    35    34    1
    20     9    27   ar
    21     9    38    1
    22    27    28    1
    23    37    34    1
    24    34    28    1
    25    34    36    1
    26    38    39    1
    27    33    30    1
    28    28    30    1
    29    28    29    1
    30     2     1    1
    31    30    31    1
    32    30    32    1
    33     6     5    1
    34    39     1    1
    35    39     5    1
    36    39    40    1
    37     8     5    1
    38     1     3    1
    39     1     4    1
    40     5     7    1
