@<TRIPOS>MOLECULE
38
 39 39 0 0 0
SMALL
GASTEIGER

@<TRIPOS>ATOM
      1 C           1.0006    4.8377   23.1967 C.3     1  UNL1        0.0000
      2 H           0.7032    4.2662   22.3189 H       1  UNL1        0.0000
      3 H           1.1600    5.8688   22.8881 H       1  UNL1        0.0000
      4 H           0.1646    4.8460   23.8918 H       1  UNL1        0.0000
      5 C           3.9339    3.9786   22.6373 C.3     1  UNL1        0.0000
      6 H           4.7687    4.6411   22.8526 H       1  UNL1        0.0000
      7 H           3.5426    4.2616   21.6609 H       1  UNL1        0.0000
      8 H           4.3240    2.9658   22.5571 H       1  UNL1        0.0000
      9 C           2.5185    2.5799   26.2936 C.ar    1  UNL1        0.0000
     10 C           2.0083    1.4017   25.6989 C.ar    1  UNL1        0.0000
     11 C           1.7146    1.2445   24.2263 C.3     1  UNL1        0.0000
     12 H           2.0694    2.1240   23.6886 H       1  UNL1        0.0000
     13 C           0.2086    1.1553   23.9820 C.3     1  UNL1        0.0000
     14 H          -0.0014    1.0965   22.9158 H       1  UNL1        0.0000
     15 H          -0.2865    2.0332   24.3889 H       1  UNL1        0.0000
     16 H          -0.2078    0.2742   24.4633 H       1  UNL1        0.0000
     17 C           2.4551    0.0513   23.6202 C.3     1  UNL1        0.0000
     18 H           3.5174    0.1166   23.8438 H       1  UNL1        0.0000
     19 H           2.3250    0.0408   22.5398 H       1  UNL1        0.0000
     20 H           2.0806   -0.8893   24.0139 H       1  UNL1        0.0000
     21 C           1.7267    0.2987   26.4921 C.ar    1  UNL1        0.0000
     22 H           1.3191   -0.5876   26.0301 H       1  UNL1        0.0000
     23 C           1.9449    0.2992   27.8531 C.ar    1  UNL1        0.0000
     24 H           1.7140   -0.5703   28.4488 H       1  UNL1        0.0000
     25 C           2.4669    1.4349   28.4339 C.ar    1  UNL1        0.0000
     26 H           2.6468    1.4424   29.4974 H       1  UNL1        0.0000
     27 C           2.7587    2.5653   27.6853 C.ar    1  UNL1        0.0000
     28 C           3.3174    3.7541   28.4383 C.3     1  UNL1        0.0000
     29 H           3.5825    4.5721   27.7076 H       1  UNL1        0.0000
     30 C           4.5820    3.3716   29.2118 C.3     1  UNL1        0.0000
     31 H           4.3410    2.6978   30.0304 H       1  UNL1        0.0000
     32 H           5.0516    4.2579   29.6287 H       1  UNL1        0.0000
     33 H           5.3033    2.8796   28.5658 H       1  UNL1        0.0000
     34 C           2.2687    4.3008   29.4101 C.3     1  UNL1        0.0000
     35 H           2.6527    5.1741   29.9314 H       1  UNL1        0.0000
     36 H           1.3661    4.5839   28.8787 H       1  UNL1        0.0000
     37 H           2.0099    3.5461   30.1498 H       1  UNL1        0.0000
     38 N           2.7880    3.7531   25.5860 N.pl3   1  UNL1        0.0000
     39 SI          2.5920    4.1568   23.9954 Si      1  UNL1        0.0000
@<TRIPOS>BOND
     1     7     5    1
     2     2     1    1
     3    19    17    1
     4     8     5    1
     5     5     6    1
     6     5    39    1
     7     3     1    1
     8    14    13    1
     9     1     4    1
    10     1    39    1
    11    17    18    1
    12    17    20    1
    13    17    11    1
    14    12    11    1
    15    13    11    1
    16    13    15    1
    17    13    16    1
    18    39    38    1
    19    11    10    1
    20    38     9    1
    21    10     9   ar
    22    10    21   ar
    23    22    21    1
    24     9    27   ar
    25    21    23   ar
    26    27    25   ar
    27    27    28    1
    28    29    28    1
    29    23    25   ar
    30    23    24    1
    31    25    26    1
    32    28    30    1
    33    28    34    1
    34    33    30    1
    35    36    34    1
    36    30    32    1
    37    30    31    1
    38    34    35    1
    39    34    37    1
