@<TRIPOS>MOLECULE
38
 40 40 0 0 0
SMALL
GASTEIGER

@<TRIPOS>ATOM
      1 C           2.0427    7.5140    5.5938 C.3     1  UNL1        0.0000
      2 H           2.8906    7.0598    6.0953 H       1  UNL1        0.0000
      3 H           1.6985    6.8183    4.8359 H       1  UNL1        0.0000
      4 H           1.2493    7.6222    6.3292 H       1  UNL1        0.0000
      5 C           1.2568    9.3769    3.3847 C.3     1  UNL1        0.0000
      6 H           1.3446   10.3187    2.8529 H       1  UNL1        0.0000
      7 H           0.2228    9.2580    3.6865 H       1  UNL1        0.0000
      8 H           1.4732    8.5890    2.6677 H       1  UNL1        0.0000
      9 C           1.8453   10.5262    7.1371 C.ar    1  UNL1        0.0000
     10 C           2.1464   10.0357    8.4287 C.ar    1  UNL1        0.0000
     11 C           3.4904    9.4238    8.7678 C.3     1  UNL1        0.0000
     12 H           4.0470    9.2327    7.8284 H       1  UNL1        0.0000
     13 C           4.3083   10.3987    9.6296 C.3     1  UNL1        0.0000
     14 H           5.2734    9.9605    9.8828 H       1  UNL1        0.0000
     15 H           3.7793   10.6127   10.5572 H       1  UNL1        0.0000
     16 H           4.4682   11.3505    9.1099 H       1  UNL1        0.0000
     17 C           3.3453    8.0845    9.4948 C.3     1  UNL1        0.0000
     18 H           4.3217    7.6235    9.6187 H       1  UNL1        0.0000
     19 H           2.7073    7.4092    8.9297 H       1  UNL1        0.0000
     20 H           2.9099    8.2178   10.4817 H       1  UNL1        0.0000
     21 C           1.2087   10.1266    9.4477 C.ar    1  UNL1        0.0000
     22 H           1.4554    9.7592   10.4322 H       1  UNL1        0.0000
     23 C          -0.0416   10.6686    9.2328 C.ar    1  UNL1        0.0000
     24 H          -0.7663   10.7140   10.0315 H       1  UNL1        0.0000
     25 C          -0.3383   11.1657    7.9808 C.ar    1  UNL1        0.0000
     26 H          -1.3073   11.6103    7.8100 H       1  UNL1        0.0000
     27 C           0.5760   11.1136    6.9401 C.ar    1  UNL1        0.0000
     28 C           0.1710   11.7352    5.6244 C.3     1  UNL1        0.0000
     29 H           0.9435   11.5051    4.8920 H       1  UNL1        0.0000
     30 C          -1.1663   11.1802    5.1246 C.3     1  UNL1        0.0000
     31 H          -1.3198   11.4426    4.0793 H       1  UNL1        0.0000
     32 H          -1.9967   11.5902    5.6948 H       1  UNL1        0.0000
     33 H          -1.1947   10.0975    5.2196 H       1  UNL1        0.0000
     34 C           0.0818   13.2575    5.7622 C.3     1  UNL1        0.0000
     35 H          -0.2038   13.7118    4.8151 H       1  UNL1        0.0000
     36 H           1.0425   13.6629    6.0655 H       1  UNL1        0.0000
     37 H          -0.6590   13.5343    6.5095 H       1  UNL1        0.0000
     38 N           2.7664   10.3938    6.0787 N.pl3   1  UNL1        0.0000
     39 SI          2.4854    9.2188    4.8497 Si      1  UNL1        0.0000
     40 H           3.8289    9.2944    4.1677 H       1  UNL1        0.0000
@<TRIPOS>BOND
     1     8     5    1
     2     6     5    1
     3     5     7    1
     4     5    39    1
     5    31    30    1
     6    40    39    1
     7    35    34    1
     8     3     1    1
     9    39     1    1
    10    39    38    1
    11    29    28    1
    12    30    33    1
    13    30    28    1
    14    30    32    1
    15     1     2    1
    16     1     4    1
    17    28    34    1
    18    28    27    1
    19    34    36    1
    20    34    37    1
    21    38     9    1
    22    27     9   ar
    23    27    25   ar
    24     9    10   ar
    25    26    25    1
    26    12    11    1
    27    25    23   ar
    28    10    11    1
    29    10    21   ar
    30    11    17    1
    31    11    13    1
    32    19    17    1
    33    16    13    1
    34    23    21   ar
    35    23    24    1
    36    21    22    1
    37    17    18    1
    38    17    20    1
    39    13    14    1
    40    13    15    1
