@<TRIPOS>MOLECULE
38
 40 40 0 0 0
SMALL
GASTEIGER

@<TRIPOS>ATOM
      1 C           8.5819    7.2759    6.6176 C.3     1  UNL1        0.0000
      2 H           9.3498    7.6988    7.2572 H       1  UNL1        0.0000
      3 H           8.8944    7.4182    5.5875 H       1  UNL1        0.0000
      4 H           8.5572    6.2088    6.8146 H       1  UNL1        0.0000
      5 C           5.6839    6.6424    7.2933 C.3     1  UNL1        0.0000
      6 H           4.6461    6.9544    7.2577 H       1  UNL1        0.0000
      7 H           5.8735    6.2529    8.2895 H       1  UNL1        0.0000
      8 H           5.8004    5.8155    6.6025 H       1  UNL1        0.0000
      9 C           7.0904    9.1584    4.4898 C.ar    1  UNL1        0.0000
     10 C           6.7347    8.1908    3.5244 C.ar    1  UNL1        0.0000
     11 C           5.6819    7.1346    3.7692 C.3     1  UNL1        0.0000
     12 H           5.1567    7.3799    4.6942 H       1  UNL1        0.0000
     13 C           4.6557    7.0550    2.6340 C.3     1  UNL1        0.0000
     14 H           3.8013    6.4626    2.9526 H       1  UNL1        0.0000
     15 H           5.0823    6.5827    1.7521 H       1  UNL1        0.0000
     16 H           4.3012    8.0431    2.3540 H       1  UNL1        0.0000
     17 C           6.3569    5.7678    3.9277 C.3     1  UNL1        0.0000
     18 H           5.6185    5.0098    4.1829 H       1  UNL1        0.0000
     19 H           7.1151    5.7994    4.7042 H       1  UNL1        0.0000
     20 H           6.8402    5.4727    2.9983 H       1  UNL1        0.0000
     21 C           7.4097    8.1413    2.3125 C.ar    1  UNL1        0.0000
     22 H           7.1232    7.4016    1.5808 H       1  UNL1        0.0000
     23 C           8.4571    8.9912    2.0257 C.ar    1  UNL1        0.0000
     24 H           8.9771    8.9272    1.0815 H       1  UNL1        0.0000
     25 C           8.8480    9.9029    2.9845 C.ar    1  UNL1        0.0000
     26 H           9.6972   10.5407    2.7867 H       1  UNL1        0.0000
     27 C           8.1868   10.0003    4.2002 C.ar    1  UNL1        0.0000
     28 C           8.7078   10.9941    5.2127 C.3     1  UNL1        0.0000
     29 H           8.0228   10.9899    6.0717 H       1  UNL1        0.0000
     30 C          10.0967   10.5757    5.7028 C.3     1  UNL1        0.0000
     31 H          10.4650   11.2794    6.4472 H       1  UNL1        0.0000
     32 H          10.8049   10.5541    4.8773 H       1  UNL1        0.0000
     33 H          10.0600    9.5863    6.1479 H       1  UNL1        0.0000
     34 C           8.7652   12.4090    4.6317 C.3     1  UNL1        0.0000
     35 H           9.1727   13.0989    5.3670 H       1  UNL1        0.0000
     36 H           7.7696   12.7422    4.3526 H       1  UNL1        0.0000
     37 H           9.4037   12.4477    3.7519 H       1  UNL1        0.0000
     38 N           6.4410    9.2527    5.7482 N.pl3   1  UNL1        0.0000
     39 SI          6.8844    8.0909    6.9371 Si      1  UNL1        0.0000
     40 H           6.9738    8.8379    8.2331 H       1  UNL1        0.0000
@<TRIPOS>BOND
     1    24    23    1
     2    22    21    1
     3    15    13    1
     4    23    21   ar
     5    23    25   ar
     6    21    10   ar
     7    16    13    1
     8    13    14    1
     9    13    11    1
    10    26    25    1
    11    25    27   ar
    12    20    17    1
    13    10    11    1
    14    10     9   ar
    15    37    34    1
    16    11    17    1
    17    11    12    1
    18    17    18    1
    19    17    19    1
    20    27     9   ar
    21    27    28    1
    22    36    34    1
    23     9    38    1
    24    34    28    1
    25    34    35    1
    26    32    30    1
    27    28    30    1
    28    28    29    1
    29     3     1    1
    30    30    33    1
    31    30    31    1
    32    38    39    1
    33     8     5    1
    34     1     4    1
    35     1    39    1
    36     1     2    1
    37    39     5    1
    38    39    40    1
    39     6     5    1
    40     5     7    1
