@<TRIPOS>MOLECULE
38
 40 40 0 0 0
SMALL
GASTEIGER

@<TRIPOS>ATOM
      1 C           6.3095    7.9722   24.0611 C.3     1  UNL1        0.0000
      2 H           7.0828    7.3535   23.6159 H       1  UNL1        0.0000
      3 H           6.4151    8.9681   23.6434 H       1  UNL1        0.0000
      4 H           5.3488    7.5815   23.7447 H       1  UNL1        0.0000
      5 C           8.2594    8.0847   26.4108 C.3     1  UNL1        0.0000
      6 H           8.5078    9.0081   26.9219 H       1  UNL1        0.0000
      7 H           8.8889    8.0292   25.5282 H       1  UNL1        0.0000
      8 H           8.5314    7.2631   27.0657 H       1  UNL1        0.0000
      9 C           6.3202    5.8956   27.5627 C.ar    1  UNL1        0.0000
     10 C           6.8059    4.6807   27.0318 C.ar    1  UNL1        0.0000
     11 C           6.4321    4.2535   25.6282 C.3     1  UNL1        0.0000
     12 H           5.5746    4.8773   25.2995 H       1  UNL1        0.0000
     13 C           7.6148    4.5072   24.6886 C.3     1  UNL1        0.0000
     14 H           7.9420    5.5401   24.7663 H       1  UNL1        0.0000
     15 H           7.3415    4.3002   23.6550 H       1  UNL1        0.0000
     16 H           8.4509    3.8643   24.9588 H       1  UNL1        0.0000
     17 C           6.0107    2.7836   25.5515 C.3     1  UNL1        0.0000
     18 H           6.8379    2.1253   25.8079 H       1  UNL1        0.0000
     19 H           5.6937    2.5412   24.5398 H       1  UNL1        0.0000
     20 H           5.1816    2.5793   26.2241 H       1  UNL1        0.0000
     21 C           7.6724    3.8970   27.7779 C.ar    1  UNL1        0.0000
     22 H           8.0742    2.9892   27.3525 H       1  UNL1        0.0000
     23 C           8.0495    4.2620   29.0559 C.ar    1  UNL1        0.0000
     24 H           8.7325    3.6460   29.6216 H       1  UNL1        0.0000
     25 C           7.5412    5.4259   29.5989 C.ar    1  UNL1        0.0000
     26 H           7.8260    5.7077   30.6021 H       1  UNL1        0.0000
     27 C           6.6937    6.2512   28.8757 C.ar    1  UNL1        0.0000
     28 C           6.1649    7.5108   29.5179 C.3     1  UNL1        0.0000
     29 H           5.6143    8.0626   28.7530 H       1  UNL1        0.0000
     30 C           7.2874    8.4070   30.0430 C.3     1  UNL1        0.0000
     31 H           7.7984    7.9460   30.8852 H       1  UNL1        0.0000
     32 H           6.8769    9.3582   30.3750 H       1  UNL1        0.0000
     33 H           8.0153    8.5996   29.2603 H       1  UNL1        0.0000
     34 C           5.1933    7.1583   30.6474 C.3     1  UNL1        0.0000
     35 H           4.3263    6.6391   30.2447 H       1  UNL1        0.0000
     36 H           4.8467    8.0617   31.1440 H       1  UNL1        0.0000
     37 H           5.6740    6.5223   31.3885 H       1  UNL1        0.0000
     38 N           5.5482    6.7677   26.7683 N.pl3   1  UNL1        0.0000
     39 SI          6.4004    8.0349   25.9719 Si      1  UNL1        0.0000
     40 H           5.8122    9.3500   26.3833 H       1  UNL1        0.0000
@<TRIPOS>BOND
     1     2     1    1
     2     3     1    1
     3    15    13    1
     4     4     1    1
     5     1    39    1
     6    19    17    1
     7    13    14    1
     8    13    16    1
     9    13    11    1
    10    12    11    1
    11     7     5    1
    12    17    11    1
    13    17    18    1
    14    17    20    1
    15    11    10    1
    16    39    40    1
    17    39     5    1
    18    39    38    1
    19     5     6    1
    20     5     8    1
    21    38     9    1
    22    10     9   ar
    23    10    21   ar
    24    22    21    1
    25     9    27   ar
    26    21    23   ar
    27    29    28    1
    28    27    28    1
    29    27    25   ar
    30    23    25   ar
    31    23    24    1
    32    33    30    1
    33    28    30    1
    34    28    34    1
    35    25    26    1
    36    30    32    1
    37    30    31    1
    38    35    34    1
    39    34    36    1
    40    34    37    1
