@<TRIPOS>MOLECULE
38
 40 40 0 0 0
SMALL
GASTEIGER

@<TRIPOS>ATOM
      1 C           9.3806   10.5419   28.7184 C.3     1  UNL1        0.0000
      2 H           9.6303   10.4030   29.7654 H       1  UNL1        0.0000
      3 H           9.0537    9.5791   28.3379 H       1  UNL1        0.0000
      4 H          10.2938   10.8097   28.1949 H       1  UNL1        0.0000
      5 C           6.3479   11.0328   28.7047 C.3     1  UNL1        0.0000
      6 H           6.4436   10.0348   29.1199 H       1  UNL1        0.0000
      7 H           5.6873   11.5927   29.3573 H       1  UNL1        0.0000
      8 H           5.8582   10.9492   27.7389 H       1  UNL1        0.0000
      9 C           7.1883   12.7134   26.1088 C.ar    1  UNL1        0.0000
     10 C           5.9881   13.4558   26.1741 C.ar    1  UNL1        0.0000
     11 C           5.7001   14.3620   27.3484 C.3     1  UNL1        0.0000
     12 H           6.4396   14.1400   28.1223 H       1  UNL1        0.0000
     13 C           5.8448   15.8270   26.9288 C.3     1  UNL1        0.0000
     14 H           5.7325   16.4889   27.7849 H       1  UNL1        0.0000
     15 H           6.8237   15.9989   26.4858 H       1  UNL1        0.0000
     16 H           5.0830   16.0880   26.1960 H       1  UNL1        0.0000
     17 C           4.3136   14.1146   27.9451 C.3     1  UNL1        0.0000
     18 H           4.2064   14.6739   28.8722 H       1  UNL1        0.0000
     19 H           3.5265   14.4350   27.2667 H       1  UNL1        0.0000
     20 H           4.1737   13.0585   28.1589 H       1  UNL1        0.0000
     21 C           5.0646   13.3659   25.1437 C.ar    1  UNL1        0.0000
     22 H           4.1578   13.9513   25.1913 H       1  UNL1        0.0000
     23 C           5.2718   12.5314   24.0618 C.ar    1  UNL1        0.0000
     24 H           4.5393   12.4691   23.2706 H       1  UNL1        0.0000
     25 C           6.4161   11.7571   24.0188 C.ar    1  UNL1        0.0000
     26 H           6.5538   11.0729   23.1948 H       1  UNL1        0.0000
     27 C           7.3740   11.8293   25.0185 C.ar    1  UNL1        0.0000
     28 C           8.5609   10.8870   24.9806 C.3     1  UNL1        0.0000
     29 H           9.3264   11.2467   25.6932 H       1  UNL1        0.0000
     30 C           9.2081   10.7953   23.5962 C.3     1  UNL1        0.0000
     31 H          10.1370   10.2326   23.6619 H       1  UNL1        0.0000
     32 H           8.5567   10.2852   22.8899 H       1  UNL1        0.0000
     33 H           9.4280   11.7889   23.2064 H       1  UNL1        0.0000
     34 C           8.1028    9.4953   25.4301 C.3     1  UNL1        0.0000
     35 H           8.9515    8.8169   25.4872 H       1  UNL1        0.0000
     36 H           7.6300    9.5506   26.4063 H       1  UNL1        0.0000
     37 H           7.3802    9.0908   24.7233 H       1  UNL1        0.0000
     38 N           8.1660   12.8369   27.1088 N.pl3   1  UNL1        0.0000
     39 SI          8.0426   11.8976   28.5401 Si      1  UNL1        0.0000
     40 H           8.1921   12.8220   29.7019 H       1  UNL1        0.0000
@<TRIPOS>BOND
     1    32    30    1
     2    26    25    1
     3    33    30    1
     4    24    23    1
     5    30    31    1
     6    30    28    1
     7    25    23   ar
     8    25    27   ar
     9    23    21   ar
    10    37    34    1
    11    28    27    1
    12    28    34    1
    13    28    29    1
    14    27     9   ar
    15    21    22    1
    16    21    10   ar
    17    34    35    1
    18    34    36    1
    19     9    10   ar
    20     9    38    1
    21    10    11    1
    22    16    13    1
    23    15    13    1
    24    13    11    1
    25    13    14    1
    26    38    39    1
    27    19    17    1
    28    11    17    1
    29    11    12    1
    30     8     5    1
    31    17    20    1
    32    17    18    1
    33     4     1    1
    34     3     1    1
    35    39     5    1
    36    39     1    1
    37    39    40    1
    38     5     6    1
    39     5     7    1
    40     1     2    1
