@<TRIPOS>MOLECULE
38
 40 40 0 0 0
SMALL
GASTEIGER

@<TRIPOS>ATOM
      1 C          14.5258   11.8260   26.8041 C.3     1  UNL1        0.0000
      2 H          15.1983   11.9015   25.9556 H       1  UNL1        0.0000
      3 H          14.7819   12.6149   27.5042 H       1  UNL1        0.0000
      4 H          14.7304   10.8776   27.2892 H       1  UNL1        0.0000
      5 C          12.6787   11.9509   24.3571 C.3     1  UNL1        0.0000
      6 H          12.8801   10.9527   23.9810 H       1  UNL1        0.0000
      7 H          11.7118   12.2616   23.9683 H       1  UNL1        0.0000
      8 H          13.4330   12.6104   23.9380 H       1  UNL1        0.0000
      9 C          12.6205   14.2137   27.7187 C.ar    1  UNL1        0.0000
     10 C          13.2821   15.4741   25.6037 C.3     1  UNL1        0.0000
     11 H          12.5946   14.7344   25.1718 H       1  UNL1        0.0000
     12 C          14.6606   15.2638   24.9699 C.3     1  UNL1        0.0000
     13 H          14.5906   15.3124   23.8844 H       1  UNL1        0.0000
     14 H          15.3594   16.0290   25.3000 H       1  UNL1        0.0000
     15 H          15.0603   14.2931   25.2502 H       1  UNL1        0.0000
     16 C          12.7511   16.8707   25.2633 C.3     1  UNL1        0.0000
     17 H          12.8050   17.0326   24.1884 H       1  UNL1        0.0000
     18 H          11.7131   16.9822   25.5741 H       1  UNL1        0.0000
     19 H          13.3443   17.6408   25.7512 H       1  UNL1        0.0000
     20 C          13.3493   15.2516   27.0992 C.ar    1  UNL1        0.0000
     21 C          14.1715   16.0642   27.8648 C.ar    1  UNL1        0.0000
     22 H          14.7430   16.8461   27.3864 H       1  UNL1        0.0000
     23 C          14.2971   15.8786   29.2281 C.ar    1  UNL1        0.0000
     24 H          14.9624   16.5031   29.8057 H       1  UNL1        0.0000
     25 C          13.5559   14.8880   29.8463 C.ar    1  UNL1        0.0000
     26 H          13.6475   14.7489   30.9127 H       1  UNL1        0.0000
     27 C          12.7089   14.0654   29.1202 C.ar    1  UNL1        0.0000
     28 C          11.9013   12.9987   29.8224 C.3     1  UNL1        0.0000
     29 H          11.0566   12.7458   29.1679 H       1  UNL1        0.0000
     30 C          11.3492   13.4631   31.1743 C.3     1  UNL1        0.0000
     31 H          10.5457   12.7998   31.4871 H       1  UNL1        0.0000
     32 H          12.1218   13.4381   31.9398 H       1  UNL1        0.0000
     33 H          10.9574   14.4759   31.1200 H       1  UNL1        0.0000
     34 C          12.7436   11.7378   30.0307 C.3     1  UNL1        0.0000
     35 H          12.1609   10.9806   30.5509 H       1  UNL1        0.0000
     36 H          13.0666   11.3340   29.0771 H       1  UNL1        0.0000
     37 H          13.6252   11.9688   30.6264 H       1  UNL1        0.0000
     38 N          11.8742   13.2968   26.9578 N.pl3   1  UNL1        0.0000
     39 SI         12.6944   11.9526   26.2747 Si      1  UNL1        0.0000
     40 H          12.0082   10.6910   26.6853 H       1  UNL1        0.0000
@<TRIPOS>BOND
     1    13    12    1
     2     8     5    1
     3     7     5    1
     4     6     5    1
     5    17    16    1
     6     5    39    1
     7    12    15    1
     8    12    14    1
     9    12    10    1
    10    11    10    1
    11    16    18    1
    12    16    10    1
    13    16    19    1
    14    10    20    1
    15     2     1    1
    16    39    40    1
    17    39     1    1
    18    39    38    1
    19     1     4    1
    20     1     3    1
    21    38     9    1
    22    20     9   ar
    23    20    21   ar
    24    22    21    1
    25     9    27   ar
    26    21    23   ar
    27    36    34    1
    28    27    28    1
    29    27    25   ar
    30    29    28    1
    31    23    24    1
    32    23    25   ar
    33    28    34    1
    34    28    30    1
    35    25    26    1
    36    34    35    1
    37    34    37    1
    38    33    30    1
    39    30    31    1
    40    30    32    1
