@<TRIPOS>MOLECULE
1
 11 11 0 0 0
SMALL
GASTEIGER

@<TRIPOS>ATOM
      1 N          10.4882    5.7219    9.3324 N.pl3   1  UNL1       -0.2487
      2 C          10.0475    6.9759    9.4010 C.3     1  UNL1        0.0840
      3 C           8.9571    7.4323    8.6819 C.2     1  UNL1       -0.0600
      4 C           8.2757    6.5404    7.8637 C.2     1  UNL1       -0.0626
      5 C           8.7338    5.2328    7.7935 C.2     1  UNL1       -0.0466
      6 C           9.8466    4.8690    8.5354 C.2     1  UNL1        0.0121
      7 H          10.2427    3.8592    8.5147 H       1  UNL1        0.0797
      8 H           8.2285    4.4990    7.1855 H       1  UNL1        0.0630
      9 H           7.4107    6.8583    7.3012 H       1  UNL1        0.0615
     10 H           8.6365    8.4596    8.7665 H       1  UNL1        0.0592
     11 H          10.5857    7.6430   10.0676 H       1  UNL1        0.0584
@<TRIPOS>BOND
     1     8     5    1
     2     9     4    1
     3     5     4    1
     4     5     6    2
     5     4     3    2
     6     7     6    1
     7     6     1    1
     8     3    10    1
     9     3     2    1
    10     1     2    1
    11     2    11    1
