@<TRIPOS>MOLECULE
1
 67 69 0 0 0
SMALL
GASTEIGER

@<TRIPOS>ATOM
      1 N          10.0751   14.1070   15.3166 N.pl3   1  UNL1        0.0000
      2 N           7.5609   13.4821   14.9314 N.ar    1  UNL1        0.0000
      3 N           9.0563   11.8001   15.3293 N.ar    1  UNL1        0.0000
      4 B           8.9594   13.2456   15.2209 B       1  UNL1        0.0000
      5 C           6.9234   12.2441   14.8668 C.ar    1  UNL1        0.0000
      6 C           7.7997   11.2571   15.1117 C.ar    1  UNL1        0.0000
      7 C           6.7455   14.6369   14.9714 C.ar    1  UNL1        0.0000
      8 C           6.1031   15.0833   13.8103 C.ar    1  UNL1        0.0000
      9 C           5.2502   16.1757   13.8916 C.ar    1  UNL1        0.0000
     10 C           5.0452   16.8296   15.0902 C.ar    1  UNL1        0.0000
     11 C           5.6784   16.3801   16.2321 C.ar    1  UNL1        0.0000
     12 C           6.5127   15.2721   16.1992 C.ar    1  UNL1        0.0000
     13 C           6.3229   14.4088   12.4752 C.3     1  UNL1        0.0000
     14 C           5.0275   13.7721   11.9647 C.3     1  UNL1        0.0000
     15 C           6.8661   15.4107   11.4535 C.3     1  UNL1        0.0000
     16 C           7.1268   14.7580   17.4794 C.3     1  UNL1        0.0000
     17 C           6.0544   14.4995   18.5411 C.3     1  UNL1        0.0000
     18 C           8.1866   15.7341   17.9913 C.3     1  UNL1        0.0000
     19 C          10.1306   11.0158   15.8003 C.ar    1  UNL1        0.0000
     20 C          10.1541   10.6161   17.1444 C.ar    1  UNL1        0.0000
     21 C          11.2394    9.8834   17.6034 C.ar    1  UNL1        0.0000
     22 C          12.2717    9.5323   16.7543 C.ar    1  UNL1        0.0000
     23 C          12.2293    9.9108   15.4268 C.ar    1  UNL1        0.0000
     24 C          11.1687   10.6578   14.9330 C.ar    1  UNL1        0.0000
     25 C           9.0436   11.0071   18.0927 C.3     1  UNL1        0.0000
     26 C           8.5434    9.8149   18.9106 C.3     1  UNL1        0.0000
     27 C           9.5206   12.1357   19.0107 C.3     1  UNL1        0.0000
     28 C          11.1232   11.0428   13.4728 C.3     1  UNL1        0.0000
     29 C          12.3781   11.8174   13.0680 C.3     1  UNL1        0.0000
     30 C          10.9438    9.7955   12.6027 C.3     1  UNL1        0.0000
     31 H          10.8709   13.5395   15.6264 H       1  UNL1        0.0000
     32 H           5.8710   12.1788   14.6694 H       1  UNL1        0.0000
     33 H           7.6366   10.1963   15.1387 H       1  UNL1        0.0000
     34 H           4.7396   16.5235   13.0059 H       1  UNL1        0.0000
     35 H           4.3867   17.6845   15.1353 H       1  UNL1        0.0000
     36 H           5.5063   16.8916   17.1665 H       1  UNL1        0.0000
     37 H           7.0622   13.6121   12.6049 H       1  UNL1        0.0000
     38 H           5.2054   13.2585   11.0218 H       1  UNL1        0.0000
     39 H           4.6469   13.0491   12.6823 H       1  UNL1        0.0000
     40 H           4.2618   14.5271   11.8045 H       1  UNL1        0.0000
     41 H           7.0869   14.9101   10.5127 H       1  UNL1        0.0000
     42 H           6.1372   16.1917   11.2527 H       1  UNL1        0.0000
     43 H           7.7743   15.8787   11.8267 H       1  UNL1        0.0000
     44 H           7.6235   13.8079   17.2692 H       1  UNL1        0.0000
     45 H           5.5888   15.4255   18.8680 H       1  UNL1        0.0000
     46 H           6.5013   14.0213   19.4102 H       1  UNL1        0.0000
     47 H           5.2792   13.8449   18.1481 H       1  UNL1        0.0000
     48 H           8.5918   15.3865   18.9400 H       1  UNL1        0.0000
     49 H           7.7616   16.7243   18.1397 H       1  UNL1        0.0000
     50 H           9.0020   15.8063   17.2682 H       1  UNL1        0.0000
     51 H          11.2834    9.5845   18.6392 H       1  UNL1        0.0000
     52 H          13.1077    8.9600   17.1279 H       1  UNL1        0.0000
     53 H          13.0302    9.6145   14.7660 H       1  UNL1        0.0000
     54 H           8.1990   11.3816   17.5081 H       1  UNL1        0.0000
     55 H           8.2905    8.9826   18.2571 H       1  UNL1        0.0000
     56 H           7.6527   10.0977   19.4678 H       1  UNL1        0.0000
     57 H           9.2927    9.4789   19.6226 H       1  UNL1        0.0000
     58 H           8.7290   12.4126   19.7039 H       1  UNL1        0.0000
     59 H           9.7923   13.0102   18.4233 H       1  UNL1        0.0000
     60 H          10.3895   11.8226   19.5853 H       1  UNL1        0.0000
     61 H          10.2570   11.6937   13.3177 H       1  UNL1        0.0000
     62 H          13.2653   11.1942   13.1539 H       1  UNL1        0.0000
     63 H          12.2977   12.1465   12.0323 H       1  UNL1        0.0000
     64 H          12.4983   12.6905   13.7127 H       1  UNL1        0.0000
     65 H          11.7844    9.1160   12.7220 H       1  UNL1        0.0000
     66 H          10.0351    9.2665   12.8814 H       1  UNL1        0.0000
     67 H          10.8732   10.0748   11.5533 H       1  UNL1        0.0000
@<TRIPOS>BOND
     1    41    15    1
     2    38    14    1
     3    42    15    1
     4    15    43    1
     5    15    13    1
     6    67    30    1
     7    40    14    1
     8    14    13    1
     9    14    39    1
    10    63    29    1
    11    13    37    1
    12    13     8    1
    13    30    65    1
    14    30    66    1
    15    30    28    1
    16    34     9    1
    17    29    62    1
    18    29    28    1
    19    29    64    1
    20    61    28    1
    21    28    24    1
    22     8     9   ar
    23     8     7   ar
    24     9    10   ar
    25    32     5    1
    26    53    23    1
    27     5     2   ar
    28     5     6   ar
    29     2     7    1
    30     2     4   ar
    31    24    23   ar
    32    24    19   ar
    33     7    12   ar
    34    10    35    1
    35    10    11   ar
    36     6    33    1
    37     6     3   ar
    38     4     1    1
    39     4     3   ar
    40     1    31    1
    41     3    19    1
    42    23    22   ar
    43    19    20   ar
    44    12    11   ar
    45    12    16    1
    46    11    36    1
    47    22    52    1
    48    22    21   ar
    49    20    21   ar
    50    20    25    1
    51    50    18    1
    52    44    16    1
    53    16    18    1
    54    16    17    1
    55    54    25    1
    56    21    51    1
    57    18    49    1
    58    18    48    1
    59    25    26    1
    60    25    27    1
    61    47    17    1
    62    55    26    1
    63    59    27    1
    64    17    45    1
    65    17    46    1
    66    26    56    1
    67    26    57    1
    68    27    60    1
    69    27    58    1
