@<TRIPOS>MOLECULE
3
 27 26 0 0 0
SMALL
GASTEIGER

@<TRIPOS>ATOM
      1 SI          3.1967   -1.2317    3.5202 Si      1  UNL1        0.0000
      2 SI          6.1903   -0.8954    4.0229 Si      1  UNL1        0.0000
      3 N           4.7648   -0.6598    3.0804 N.3     1  UNL1        0.0000
      4 C           6.0568   -0.2119    5.8050 C.3     1  UNL1        0.0000
      5 H           5.5906    0.7669    5.8409 H       1  UNL1        0.0000
      6 H           7.0314   -0.1331    6.2757 H       1  UNL1        0.0000
      7 H           5.4546   -0.8814    6.4098 H       1  UNL1        0.0000
      8 C           7.5683    0.0631    3.0685 C.3     1  UNL1        0.0000
      9 H           7.7599    1.0441    3.4956 H       1  UNL1        0.0000
     10 H           7.3086    0.1860    2.0019 H       1  UNL1        0.0000
     11 H           8.5048   -0.4847    3.0998 H       1  UNL1        0.0000
     12 C           6.8106   -2.6954    4.1883 C.3     1  UNL1        0.0000
     13 H           6.0460   -3.3324    4.6172 H       1  UNL1        0.0000
     14 H           7.6780   -2.7435    4.8397 H       1  UNL1        0.0000
     15 H           7.0937   -3.1187    3.2310 H       1  UNL1        0.0000
     16 C           2.2919   -0.1380    4.8070 C.3     1  UNL1        0.0000
     17 H           2.9154    0.0179    5.6806 H       1  UNL1        0.0000
     18 H           1.3723   -0.6080    5.1411 H       1  UNL1        0.0000
     19 H           2.0330    0.8373    4.4067 H       1  UNL1        0.0000
     20 C           3.1015   -3.0190    4.1757 C.3     1  UNL1        0.0000
     21 H           3.6342   -3.1050    5.1162 H       1  UNL1        0.0000
     22 H           3.5346   -3.7288    3.4809 H       1  UNL1        0.0000
     23 H           2.0732   -3.3171    4.3525 H       1  UNL1        0.0000
     24 C           2.1944   -1.1523    1.8739 C.3     1  UNL1        0.0000
     25 H           2.3519   -0.1938    1.3525 H       1  UNL1        0.0000
     26 H           1.1280   -1.2456    2.0573 H       1  UNL1        0.0000
     27 H           2.4792   -1.9609    1.2040 H       1  UNL1        0.0000
@<TRIPOS>BOND
     1    27    24    1
     2    25    24    1
     3    24    26    1
     4    24     1    1
     5    10     8    1
     6     8    11    1
     7     8     9    1
     8     8     2    1
     9     3     1    1
    10     3     2    1
    11    15    12    1
    12    22    20    1
    13     1    20    1
    14     1    16    1
    15     2    12    1
    16     2     4    1
    17    20    23    1
    18    20    21    1
    19    12    13    1
    20    12    14    1
    21    19    16    1
    22    16    18    1
    23    16    17    1
    24     4     5    1
    25     4     6    1
    26     4     7    1
