@<TRIPOS>MOLECULE
2
 61 61 0 0 0
SMALL
GASTEIGER

@<TRIPOS>ATOM
      1 SI          7.2519    8.0847    6.8009 Si      1  UNL1        0.0000
      2 N           5.7347    7.3468    6.2030 N.pl3   1  UNL1        0.0000
      3 C           6.3483    6.5626    3.4018 C.3     1  UNL1        0.0000
      4 H           6.5535    6.0007    4.3207 H       1  UNL1        0.0000
      5 C           5.5197    7.7692    3.7883 C.ar    1  UNL1        0.0000
      6 C           5.1671    8.0576    5.1278 C.ar    1  UNL1        0.0000
      7 C           8.4590    6.5556    6.8847 C.3     1  UNL1        0.0000
      8 H           8.7079    6.2820    5.8514 H       1  UNL1        0.0000
      9 C           7.9191    9.2519    5.3842 C.3     1  UNL1        0.0000
     10 H           7.6029    8.7802    4.4538 H       1  UNL1        0.0000
     11 C           4.2864    9.1395    5.3578 C.ar    1  UNL1        0.0000
     12 C           7.7314    5.3753    7.5153 C.3     1  UNL1        0.0000
     13 C           7.2168    9.0527    8.4911 C.3     1  UNL1        0.0000
     14 H           6.3109    9.6641    8.4979 H       1  UNL1        0.0000
     15 C           7.3171   10.6551    5.3270 C.3     1  UNL1        0.0000
     16 H           6.2413   10.6016    5.2078 H       1  UNL1        0.0000
     17 H           7.7206   11.1892    4.4670 H       1  UNL1        0.0000
     18 H           7.5454   11.2407    6.2123 H       1  UNL1        0.0000
     19 C           5.5324    5.6876    2.4414 C.3     1  UNL1        0.0000
     20 H           4.5722    5.4371    2.8758 H       1  UNL1        0.0000
     21 H           6.0642    4.7675    2.2188 H       1  UNL1        0.0000
     22 H           5.3618    6.2070    1.5021 H       1  UNL1        0.0000
     23 C           3.7953    9.5079    6.7378 C.3     1  UNL1        0.0000
     24 H           4.2520    8.8101    7.4430 H       1  UNL1        0.0000
     25 C           2.2716    9.3512    6.8072 C.3     1  UNL1        0.0000
     26 H           1.7810   10.0303    6.1139 H       1  UNL1        0.0000
     27 H           1.9152    9.5748    7.8101 H       1  UNL1        0.0000
     28 H           1.9888    8.3330    6.5593 H       1  UNL1        0.0000
     29 C           9.7817    6.7675    7.6197 C.3     1  UNL1        0.0000
     30 H          10.3323    7.6112    7.2189 H       1  UNL1        0.0000
     31 H          10.4073    5.8797    7.5257 H       1  UNL1        0.0000
     32 H           9.6144    6.9412    8.6782 H       1  UNL1        0.0000
     33 C           7.6766    6.9204    2.7197 C.3     1  UNL1        0.0000
     34 H           7.5401    7.7236    1.9997 H       1  UNL1        0.0000
     35 H           8.0624    6.0554    2.1840 H       1  UNL1        0.0000
     36 H           8.4305    7.2269    3.4377 H       1  UNL1        0.0000
     37 C           3.8149    9.8932    4.2913 C.ar    1  UNL1        0.0000
     38 H           3.1431   10.7153    4.4844 H       1  UNL1        0.0000
     39 C           8.4061   10.0009    8.6688 C.3     1  UNL1        0.0000
     40 H           9.3427    9.4503    8.6747 H       1  UNL1        0.0000
     41 H           8.3164   10.5196    9.6227 H       1  UNL1        0.0000
     42 H           8.4552   10.7509    7.8881 H       1  UNL1        0.0000
     43 C           4.1666   10.9376    7.1425 C.3     1  UNL1        0.0000
     44 H           5.2414   11.0886    7.1310 H       1  UNL1        0.0000
     45 H           3.8039   11.1361    8.1486 H       1  UNL1        0.0000
     46 H           3.7128   11.6618    6.4702 H       1  UNL1        0.0000
     47 C           9.4431    9.3574    5.3227 C.3     1  UNL1        0.0000
     48 H           9.8476    9.8136    6.2209 H       1  UNL1        0.0000
     49 H           9.7343    9.9768    4.4750 H       1  UNL1        0.0000
     50 H           9.8992    8.3809    5.1911 H       1  UNL1        0.0000
     51 C           5.0495    8.5721    2.7584 C.ar    1  UNL1        0.0000
     52 H           5.3512    8.3605    1.7439 H       1  UNL1        0.0000
     53 C           4.2087    9.6389    2.9950 C.ar    1  UNL1        0.0000
     54 H           3.8587   10.2558    2.1814 H       1  UNL1        0.0000
     55 C           7.1647    8.1652    9.7361 C.3     1  UNL1        0.0000
     56 H           6.4023    7.3998    9.6619 H       1  UNL1        0.0000
     57 H           6.9439    8.7739   10.6125 H       1  UNL1        0.0000
     58 H           8.1246    7.6834    9.9076 H       1  UNL1        0.0000
     59 H           8.3050    4.4487    7.4356 H       1  UNL1        0.0000
     60 H           7.5432    5.5624    8.5724 H       1  UNL1        0.0000
     61 H           6.7658    5.2157    6.9758 H       1  UNL1        0.0000
@<TRIPOS>BOND
     1    22    19    1
     2    52    51    1
     3    34    33    1
     4    54    53    1
     5    35    33    1
     6    21    19    1
     7    19    20    1
     8    19     3    1
     9    33     3    1
    10    33    36    1
    11    51    53   ar
    12    51     5   ar
    13    53    37   ar
    14     3     5    1
    15     3     4    1
    16     5     6   ar
    17    37    38    1
    18    37    11   ar
    19    10     9    1
    20    17    15    1
    21    49    47    1
    22     6    11   ar
    23     6     2    1
    24    50    47    1
    25    16    15    1
    26    47     9    1
    27    47    48    1
    28    15     9    1
    29    15    18    1
    30    11    23    1
    31     9     1    1
    32     8     7    1
    33    26    25    1
    34     2     1    1
    35    46    43    1
    36    28    25    1
    37    23    25    1
    38    23    43    1
    39    23    24    1
    40     1     7    1
    41     1    13    1
    42    25    27    1
    43     7    12    1
    44     7    29    1
    45    61    12    1
    46    44    43    1
    47    43    45    1
    48    30    29    1
    49    59    12    1
    50    12    60    1
    51    31    29    1
    52    29    32    1
    53    42    39    1
    54    13    14    1
    55    13    39    1
    56    13    55    1
    57    39    40    1
    58    39    41    1
    59    56    55    1
    60    55    58    1
    61    55    57    1
