@<TRIPOS>MOLECULE
2
 61 61 0 0 0
SMALL
GASTEIGER

@<TRIPOS>ATOM
      1 SI          2.8116    3.5298    6.2311 Si      1  UNL1        0.0000
      2 N           4.3824    4.1632    6.7790 N.pl3   1  UNL1        0.0000
      3 C           5.3369    3.1839    7.1179 C.ar    1  UNL1        0.0000
      4 C           1.3100    3.6942    7.4593 C.3     1  UNL1        0.0000
      5 H           1.6990    3.5569    8.4718 H       1  UNL1        0.0000
      6 C           6.2091    2.6441    6.1314 C.ar    1  UNL1        0.0000
      7 C           5.4061    2.6248    8.4201 C.ar    1  UNL1        0.0000
      8 C           3.1360    1.6454    5.7892 C.3     1  UNL1        0.0000
      9 H           4.1520    1.6245    5.3967 H       1  UNL1        0.0000
     10 C           2.4371    4.4209    4.5388 C.3     1  UNL1        0.0000
     11 H           3.1518    4.0287    3.8050 H       1  UNL1        0.0000
     12 C           6.3096    3.1977    4.7232 C.3     1  UNL1        0.0000
     13 H           5.6844    4.0976    4.6773 H       1  UNL1        0.0000
     14 C           2.6727    5.9231    4.6567 C.3     1  UNL1        0.0000
     15 C           1.0393    4.2005    3.9583 C.3     1  UNL1        0.0000
     16 H           0.7906    3.1499    3.8656 H       1  UNL1        0.0000
     17 H           0.9776    4.6521    2.9679 H       1  UNL1        0.0000
     18 H           0.2861    4.6732    4.5802 H       1  UNL1        0.0000
     19 C           3.1552    0.6448    6.9429 C.3     1  UNL1        0.0000
     20 H           3.8992    0.9228    7.6786 H       1  UNL1        0.0000
     21 H           3.4195   -0.3427    6.5623 H       1  UNL1        0.0000
     22 H           2.1898    0.5563    7.4315 H       1  UNL1        0.0000
     23 C           4.5585    3.1077    9.5732 C.3     1  UNL1        0.0000
     24 H           3.9291    3.9182    9.2128 H       1  UNL1        0.0000
     25 C           2.2331    1.0939    4.6871 C.3     1  UNL1        0.0000
     26 H           1.1910    1.0972    4.9919 H       1  UNL1        0.0000
     27 H           2.5105    0.0632    4.4645 H       1  UNL1        0.0000
     28 H           2.3340    1.6673    3.7712 H       1  UNL1        0.0000
     29 C           7.0474    1.5842    6.4466 C.ar    1  UNL1        0.0000
     30 H           7.6723    1.1577    5.6767 H       1  UNL1        0.0000
     31 C           6.2999    1.5965    8.6956 C.ar    1  UNL1        0.0000
     32 H           6.3415    1.1938    9.6960 H       1  UNL1        0.0000
     33 C           5.8436    2.2038    3.6479 C.3     1  UNL1        0.0000
     34 H           6.1762    1.1949    3.8806 H       1  UNL1        0.0000
     35 H           6.2639    2.4785    2.6826 H       1  UNL1        0.0000
     36 H           4.7639    2.1974    3.5484 H       1  UNL1        0.0000
     37 C           5.4533    3.6351   10.7041 C.3     1  UNL1        0.0000
     38 H           5.9420    2.8147   11.2265 H       1  UNL1        0.0000
     39 H           4.8461    4.1884   11.4172 H       1  UNL1        0.0000
     40 H           6.2191    4.3042   10.3182 H       1  UNL1        0.0000
     41 C           7.7689    3.5654    4.4157 C.3     1  UNL1        0.0000
     42 H           8.1839    4.2172    5.1763 H       1  UNL1        0.0000
     43 H           7.8362    4.0714    3.4575 H       1  UNL1        0.0000
     44 H           8.3851    2.6716    4.3584 H       1  UNL1        0.0000
     45 C           0.2139    2.6491    7.2325 C.3     1  UNL1        0.0000
     46 H          -0.2149    2.7536    6.2392 H       1  UNL1        0.0000
     47 H          -0.5847    2.7943    7.9596 H       1  UNL1        0.0000
     48 H           0.5800    1.6348    7.3416 H       1  UNL1        0.0000
     49 C           7.1048    1.0526    7.7185 C.ar    1  UNL1        0.0000
     50 H           7.7679    0.2308    7.9432 H       1  UNL1        0.0000
     51 C           3.6324    2.0333   10.1519 C.3     1  UNL1        0.0000
     52 H           2.8739    1.7390    9.4344 H       1  UNL1        0.0000
     53 H           3.1287    2.4399   11.0261 H       1  UNL1        0.0000
     54 H           4.1889    1.1482   10.4539 H       1  UNL1        0.0000
     55 C           0.6270    5.0632    7.4454 C.3     1  UNL1        0.0000
     56 H           1.3463    5.8677    7.5184 H       1  UNL1        0.0000
     57 H          -0.0490    5.1422    8.2959 H       1  UNL1        0.0000
     58 H           0.0402    5.1957    6.5398 H       1  UNL1        0.0000
     59 H           3.6401    6.1172    5.1304 H       1  UNL1        0.0000
     60 H           1.9017    6.3723    5.2751 H       1  UNL1        0.0000
     61 H           2.6426    6.4095    3.6809 H       1  UNL1        0.0000
@<TRIPOS>BOND
     1    35    33    1
     2    17    15    1
     3    43    41    1
     4    36    33    1
     5    33    34    1
     6    33    12    1
     7    61    14    1
     8    28    25    1
     9    11    10    1
    10    16    15    1
    11    15    10    1
    12    15    18    1
    13    44    41    1
    14    41    12    1
    15    41    42    1
    16    27    25    1
    17    10    14    1
    18    10     1    1
    19    14    59    1
    20    14    60    1
    21    13    12    1
    22    25    26    1
    23    25     8    1
    24    12     6    1
    25     9     8    1
    26    30    29    1
    27     8     1    1
    28     8    19    1
    29     6    29   ar
    30     6     3   ar
    31     1     2    1
    32     1     4    1
    33    46    45    1
    34    29    49   ar
    35    58    55    1
    36    21    19    1
    37     2     3    1
    38    19    22    1
    39    19    20    1
    40     3     7   ar
    41    45    48    1
    42    45     4    1
    43    45    47    1
    44    55     4    1
    45    55    56    1
    46    55    57    1
    47     4     5    1
    48    49    50    1
    49    49    31   ar
    50     7    31   ar
    51     7    23    1
    52    31    32    1
    53    24    23    1
    54    52    51    1
    55    23    51    1
    56    23    37    1
    57    51    54    1
    58    51    53    1
    59    40    37    1
    60    37    38    1
    61    37    39    1
