@<TRIPOS>MOLECULE
2
 61 61 0 0 0
SMALL
GASTEIGER

@<TRIPOS>ATOM
      1 SI          9.1419    6.2137    1.5344 Si      1  UNL1        0.0000
      2 N           8.0066    6.5220    2.8083 N.pl3   1  UNL1        0.0000
      3 C           7.2530    4.5203    4.0192 C.ar    1  UNL1        0.0000
      4 C           7.9165    5.7733    3.9828 C.ar    1  UNL1        0.0000
      5 C           9.1289    7.6299    5.2286 C.3     1  UNL1        0.0000
      6 H           9.4584    7.8681    4.2120 H       1  UNL1        0.0000
      7 C           6.5009    3.9883    2.8202 C.3     1  UNL1        0.0000
      8 H           6.7094    4.6470    1.9755 H       1  UNL1        0.0000
      9 C           9.4353    7.9641    0.7267 C.3     1  UNL1        0.0000
     10 C          10.3324    7.7370    6.1680 C.3     1  UNL1        0.0000
     11 H          10.0164    7.7454    7.2083 H       1  UNL1        0.0000
     12 H          10.8615    8.6682    5.9757 H       1  UNL1        0.0000
     13 H          11.0265    6.9140    6.0236 H       1  UNL1        0.0000
     14 C           8.4969    6.2565    5.1859 C.ar    1  UNL1        0.0000
     15 C           7.7976    4.2680    6.3594 C.ar    1  UNL1        0.0000
     16 H           7.7617    3.6852    7.2673 H       1  UNL1        0.0000
     17 C           6.9109    2.5617    2.4460 C.3     1  UNL1        0.0000
     18 H           7.9860    2.4809    2.3196 H       1  UNL1        0.0000
     19 H           6.4296    2.2722    1.5135 H       1  UNL1        0.0000
     20 H           6.6062    1.8536    3.2128 H       1  UNL1        0.0000
     21 C          10.7666    5.2769    2.0649 C.3     1  UNL1        0.0000
     22 C           8.4165    5.5042    6.3449 C.ar    1  UNL1        0.0000
     23 H           8.8522    5.8834    7.2560 H       1  UNL1        0.0000
     24 C           7.2107    3.7980    5.2010 C.ar    1  UNL1        0.0000
     25 H           6.7051    2.8441    5.2190 H       1  UNL1        0.0000
     26 C           4.9935    4.0207    3.0935 C.3     1  UNL1        0.0000
     27 H           4.7450    3.3984    3.9502 H       1  UNL1        0.0000
     28 H           4.4493    3.6443    2.2304 H       1  UNL1        0.0000
     29 H           4.6660    5.0364    3.2955 H       1  UNL1        0.0000
     30 C           8.4094    5.1570    0.0947 C.3     1  UNL1        0.0000
     31 H           8.1702    4.1443    0.3972 H       1  UNL1        0.0000
     32 H           9.1164    5.0833   -0.7250 H       1  UNL1        0.0000
     33 H           7.5009    5.6019   -0.2990 H       1  UNL1        0.0000
     34 C          11.3899    5.8364    3.3417 C.3     1  UNL1        0.0000
     35 H          11.6035    6.8977    3.2584 H       1  UNL1        0.0000
     36 H          12.3260    5.3199    3.5593 H       1  UNL1        0.0000
     37 H          10.7159    5.6769    4.1772 H       1  UNL1        0.0000
     38 C          10.3901    8.8393    1.5365 C.3     1  UNL1        0.0000
     39 H          10.0479    8.9494    2.5618 H       1  UNL1        0.0000
     40 H          10.4638    9.8350    1.0972 H       1  UNL1        0.0000
     41 H          11.3886    8.4103    1.5517 H       1  UNL1        0.0000
     42 C          11.8207    5.3163    0.9570 C.3     1  UNL1        0.0000
     43 H          11.4186    4.9514    0.0156 H       1  UNL1        0.0000
     44 H          12.6684    4.6851    1.2265 H       1  UNL1        0.0000
     45 H          12.1947    6.3258    0.8093 H       1  UNL1        0.0000
     46 C           9.9916    7.8625   -0.6946 C.3     1  UNL1        0.0000
     47 H          10.9582    7.3699   -0.7111 H       1  UNL1        0.0000
     48 H          10.1173    8.8600   -1.1178 H       1  UNL1        0.0000
     49 H           9.3158    7.3102   -1.3405 H       1  UNL1        0.0000
     50 C          10.4316    3.8110    2.3428 C.3     1  UNL1        0.0000
     51 H           9.6796    3.7371    3.1245 H       1  UNL1        0.0000
     52 H          11.3216    3.2783    2.6796 H       1  UNL1        0.0000
     53 H          10.0655    3.3163    1.4474 H       1  UNL1        0.0000
     54 C           8.0694    8.6525    5.6491 C.3     1  UNL1        0.0000
     55 H           7.6499    8.3873    6.6171 H       1  UNL1        0.0000
     56 H           7.2604    8.6733    4.9122 H       1  UNL1        0.0000
     57 H           8.5012    9.6473    5.7257 H       1  UNL1        0.0000
     58 C           8.0820    8.6662    0.6307 C.3     1  UNL1        0.0000
     59 H           7.4621    8.1692   -0.1098 H       1  UNL1        0.0000
     60 H           8.2028    9.7068    0.3326 H       1  UNL1        0.0000
     61 H           7.5556    8.6378    1.6006 H       1  UNL1        0.0000
@<TRIPOS>BOND
     1    49    46    1
     2    48    46    1
     3    32    30    1
     4    47    46    1
     5    46     9    1
     6    33    30    1
     7    59    58    1
     8    43    42    1
     9    30    31    1
    10    30     1    1
    11    60    58    1
    12    58     9    1
    13    58    61    1
    14     9     1    1
    15     9    38    1
    16    45    42    1
    17    42    44    1
    18    42    21    1
    19    40    38    1
    20    53    50    1
    21    19    17    1
    22     1    21    1
    23     1     2    1
    24    38    41    1
    25    38    39    1
    26     8     7    1
    27    21    50    1
    28    21    34    1
    29    28    26    1
    30    18    17    1
    31    50    52    1
    32    50    51    1
    33    17     7    1
    34    17    20    1
    35     2     4    1
    36     7    26    1
    37     7     3    1
    38    26    29    1
    39    26    27    1
    40    35    34    1
    41    34    36    1
    42    34    37    1
    43     4     3   ar
    44     4    14   ar
    45     3    24   ar
    46     6     5    1
    47    56    54    1
    48    14     5    1
    49    14    22   ar
    50    24    25    1
    51    24    15   ar
    52     5    54    1
    53     5    10    1
    54    54    57    1
    55    54    55    1
    56    12    10    1
    57    13    10    1
    58    10    11    1
    59    22    15   ar
    60    22    23    1
    61    15    16    1
