@<TRIPOS>MOLECULE
2
 61 61 0 0 0
SMALL
GASTEIGER

@<TRIPOS>ATOM
      1 SI          3.8128    9.0786    1.5344 Si      1  UNL1        0.0000
      2 N           4.9481    8.7704    2.8084 N.pl3   1  UNL1        0.0000
      3 C           5.7016   10.7721    4.0193 C.ar    1  UNL1        0.0000
      4 C           5.0381    9.5191    3.9829 C.ar    1  UNL1        0.0000
      5 C           3.8259    7.6624    5.2288 C.3     1  UNL1        0.0000
      6 H           3.4966    7.4242    4.2121 H       1  UNL1        0.0000
      7 C           6.4536   11.3042    2.8202 C.3     1  UNL1        0.0000
      8 H           6.2451   10.6455    1.9755 H       1  UNL1        0.0000
      9 C           3.5196    7.3282    0.7267 C.3     1  UNL1        0.0000
     10 C           2.6222    7.5554    6.1680 C.3     1  UNL1        0.0000
     11 H           2.9380    7.5471    7.2084 H       1  UNL1        0.0000
     12 H           2.0931    6.6243    5.9756 H       1  UNL1        0.0000
     13 H           1.9282    8.3785    6.0234 H       1  UNL1        0.0000
     14 C           4.4579    9.0359    5.1860 C.ar    1  UNL1        0.0000
     15 C           5.1573   11.0243    6.3595 C.ar    1  UNL1        0.0000
     16 H           5.1934   11.6070    7.2675 H       1  UNL1        0.0000
     17 C           6.0434   12.7308    2.4461 C.3     1  UNL1        0.0000
     18 H           4.9684   12.8116    2.3198 H       1  UNL1        0.0000
     19 H           6.5245   13.0203    1.5136 H       1  UNL1        0.0000
     20 H           6.3483   13.4389    3.2128 H       1  UNL1        0.0000
     21 C           2.1881   10.0154    2.0648 C.3     1  UNL1        0.0000
     22 C           4.5384    9.7881    6.3451 C.ar    1  UNL1        0.0000
     23 H           4.1028    9.4088    7.2562 H       1  UNL1        0.0000
     24 C           5.7441   11.4943    5.2011 C.ar    1  UNL1        0.0000
     25 H           6.2497   12.4482    5.2191 H       1  UNL1        0.0000
     26 C           7.9610   11.2719    3.0934 C.3     1  UNL1        0.0000
     27 H           8.2095   11.8940    3.9502 H       1  UNL1        0.0000
     28 H           8.5051   11.6486    2.2303 H       1  UNL1        0.0000
     29 H           8.2887   10.2562    3.2950 H       1  UNL1        0.0000
     30 C           4.5453   10.1355    0.0948 C.3     1  UNL1        0.0000
     31 H           4.7843   11.1482    0.3972 H       1  UNL1        0.0000
     32 H           3.8383   10.2090   -0.7250 H       1  UNL1        0.0000
     33 H           5.4539    9.6907   -0.2988 H       1  UNL1        0.0000
     34 C           1.5648    9.4558    3.3416 C.3     1  UNL1        0.0000
     35 H           1.3514    8.3945    3.2583 H       1  UNL1        0.0000
     36 H           0.6286    9.9723    3.5592 H       1  UNL1        0.0000
     37 H           2.2388    9.6154    4.1771 H       1  UNL1        0.0000
     38 C           2.5648    6.4531    1.5365 C.3     1  UNL1        0.0000
     39 H           2.9067    6.3431    2.5619 H       1  UNL1        0.0000
     40 H           2.4912    5.4574    1.0973 H       1  UNL1        0.0000
     41 H           1.5662    6.8819    1.5515 H       1  UNL1        0.0000
     42 C           1.1339    9.9760    0.9570 C.3     1  UNL1        0.0000
     43 H           1.5361   10.3409    0.0155 H       1  UNL1        0.0000
     44 H           0.2862   10.6070    1.2264 H       1  UNL1        0.0000
     45 H           0.7600    8.9664    0.8092 H       1  UNL1        0.0000
     46 C           2.9634    7.4299   -0.6947 C.3     1  UNL1        0.0000
     47 H           1.9968    7.9223   -0.7112 H       1  UNL1        0.0000
     48 H           2.8378    6.4323   -1.1178 H       1  UNL1        0.0000
     49 H           3.6392    7.9822   -1.3406 H       1  UNL1        0.0000
     50 C           2.5228   11.4813    2.3428 C.3     1  UNL1        0.0000
     51 H           3.2748   11.5552    3.1246 H       1  UNL1        0.0000
     52 H           1.6327   12.0140    2.6796 H       1  UNL1        0.0000
     53 H           2.8889   11.9761    1.4474 H       1  UNL1        0.0000
     54 C           4.8854    6.6400    5.6497 C.3     1  UNL1        0.0000
     55 H           5.3045    6.9053    6.6178 H       1  UNL1        0.0000
     56 H           5.6946    6.6192    4.9131 H       1  UNL1        0.0000
     57 H           4.4536    5.6452    5.7262 H       1  UNL1        0.0000
     58 C           4.8730    6.6264    0.6309 C.3     1  UNL1        0.0000
     59 H           5.4930    7.1235   -0.1094 H       1  UNL1        0.0000
     60 H           4.7524    5.5858    0.3328 H       1  UNL1        0.0000
     61 H           5.3992    6.6548    1.6010 H       1  UNL1        0.0000
@<TRIPOS>BOND
     1    49    46    1
     2    48    46    1
     3    32    30    1
     4    47    46    1
     5    46     9    1
     6    33    30    1
     7    59    58    1
     8    43    42    1
     9    30    31    1
    10    30     1    1
    11    60    58    1
    12    58     9    1
    13    58    61    1
    14     9     1    1
    15     9    38    1
    16    45    42    1
    17    42    44    1
    18    42    21    1
    19    40    38    1
    20    53    50    1
    21    19    17    1
    22     1    21    1
    23     1     2    1
    24    38    41    1
    25    38    39    1
    26     8     7    1
    27    21    50    1
    28    21    34    1
    29    28    26    1
    30    18    17    1
    31    50    52    1
    32    50    51    1
    33    17     7    1
    34    17    20    1
    35     2     4    1
    36     7    26    1
    37     7     3    1
    38    26    29    1
    39    26    27    1
    40    35    34    1
    41    34    36    1
    42    34    37    1
    43     4     3   ar
    44     4    14   ar
    45     3    24   ar
    46     6     5    1
    47    56    54    1
    48    14     5    1
    49    14    22   ar
    50    24    25    1
    51    24    15   ar
    52     5    54    1
    53     5    10    1
    54    54    57    1
    55    54    55    1
    56    12    10    1
    57    13    10    1
    58    10    11    1
    59    22    15   ar
    60    22    23    1
    61    15    16    1
