@<TRIPOS>MOLECULE
3
 27 26 0 0 0
SMALL
GASTEIGER

@<TRIPOS>ATOM
      1 SI          4.5393    5.5689    2.6418 Si      1  UNL1        0.0000
      2 SI          6.9978    5.0588    0.9181 Si      1  UNL1        0.0000
      3 N           5.7773    6.0825    1.5604 N.3     1  UNL1        0.0000
      4 C           6.3976    3.6085   -0.1819 C.3     1  UNL1        0.0000
      5 H           5.7488    2.9403    0.3709 H       1  UNL1        0.0000
      6 H           7.2386    3.0240   -0.5435 H       1  UNL1        0.0000
      7 H           5.8477    3.9640   -1.0455 H       1  UNL1        0.0000
      8 C           8.0867    6.1502   -0.2230 C.3     1  UNL1        0.0000
      9 H           7.4981    7.0118   -0.5394 H       1  UNL1        0.0000
     10 H           8.4032    5.6155   -1.1128 H       1  UNL1        0.0000
     11 H           8.9773    6.5041    0.2860 H       1  UNL1        0.0000
     12 C           8.1221    4.2441    2.2447 C.3     1  UNL1        0.0000
     13 H           8.7134    4.9691    2.7942 H       1  UNL1        0.0000
     14 H           8.8089    3.5351    1.7937 H       1  UNL1        0.0000
     15 H           7.5168    3.7015    2.9627 H       1  UNL1        0.0000
     16 C           3.0144    6.7011    2.3072 C.3     1  UNL1        0.0000
     17 H           3.3361    7.6981    1.9691 H       1  UNL1        0.0000
     18 H           2.4012    6.8390    3.1921 H       1  UNL1        0.0000
     19 H           2.3780    6.2823    1.5333 H       1  UNL1        0.0000
     20 C           5.1075    5.6860    4.4746 C.3     1  UNL1        0.0000
     21 H           5.8541    4.9265    4.6864 H       1  UNL1        0.0000
     22 H           4.2854    5.5335    5.1677 H       1  UNL1        0.0000
     23 H           5.5538    6.6529    4.6848 H       1  UNL1        0.0000
     24 C           3.9169    3.7755    2.4236 C.3     1  UNL1        0.0000
     25 H           3.5625    3.5942    1.4159 H       1  UNL1        0.0000
     26 H           3.1022    3.5578    3.1061 H       1  UNL1        0.0000
     27 H           4.7140    3.0704    2.6285 H       1  UNL1        0.0000
@<TRIPOS>BOND
     1    10     8    1
     2     7     4    1
     3     6     4    1
     4     9     8    1
     5     8    11    1
     6     8     2    1
     7     4     5    1
     8     4     2    1
     9     2     3    1
    10     2    12    1
    11    25    24    1
    12    19    16    1
    13     3     1    1
    14    14    12    1
    15    17    16    1
    16    12    13    1
    17    12    15    1
    18    16     1    1
    19    16    18    1
    20    24    27    1
    21    24     1    1
    22    24    26    1
    23     1    20    1
    24    20    23    1
    25    20    21    1
    26    20    22    1
