@<TRIPOS>MOLECULE
1
 9 8 0 0 0
SMALL
GASTEIGER

@<TRIPOS>ATOM
      1 N           2.9236    4.4010    4.9981 N.3     1  UNL1       -0.2469
      2 C           1.7479    4.6422    5.8077 C.3     1  UNL1        0.0021
      3 H           2.0021    4.6274    6.8859 H       1  UNL1        0.0405
      4 H           0.9946    3.8658    5.6244 H       1  UNL1        0.0405
      5 H           1.2815    5.6323    5.6148 H       1  UNL1        0.0405
      6 C           3.8702    5.4772    5.1857 C.3     1  UNL1        0.0021
      7 H           4.0773    5.6352    6.2610 H       1  UNL1        0.0405
      8 H           3.5049    6.4500    4.7879 H       1  UNL1        0.0405
      9 H           4.8185    5.2272    4.6979 H       1  UNL1        0.0405
@<TRIPOS>BOND
     1     9     6    1
     2     8     6    1
     3     1     6    1
     4     1     2    1
     5     6     7    1
     6     5     2    1
     7     4     2    1
     8     2     3    1
