@<TRIPOS>MOLECULE
1
 9 8 0 0 0
SMALL
GASTEIGER

@<TRIPOS>ATOM
      1 N          11.9077   15.1768   -0.9951 N.3     1  UNL1       -0.2469
      2 C          13.1146   14.3977   -0.8140 C.3     1  UNL1        0.0021
      3 H          13.5954   14.1433   -1.7812 H       1  UNL1        0.0405
      4 H          12.8749   13.4651   -0.2892 H       1  UNL1        0.0405
      5 H          13.8718   14.9530   -0.2252 H       1  UNL1        0.0405
      6 C          12.1669   16.3373   -1.8186 C.3     1  UNL1        0.0021
      7 H          12.6167   16.0677   -2.7969 H       1  UNL1        0.0405
      8 H          12.8818   17.0298   -1.3313 H       1  UNL1        0.0405
      9 H          11.2295   16.8759   -1.9975 H       1  UNL1        0.0405
@<TRIPOS>BOND
     1     7     6    1
     2     9     6    1
     3     6     8    1
     4     6     1    1
     5     3     2    1
     6     1     2    1
     7     2     4    1
     8     2     5    1
