@<TRIPOS>MOLECULE
1
 9 8 0 0 0
SMALL
GASTEIGER

@<TRIPOS>ATOM
      1 N           3.6097    4.4223    1.5514 N.3     1  UNL1       -0.2469
      2 C           2.7344    4.7994    0.4573 C.3     1  UNL1        0.0021
      3 H           3.2965    4.8432   -0.4952 H       1  UNL1        0.0405
      4 H           2.2743    5.7990    0.6027 H       1  UNL1        0.0405
      5 H           1.9314    4.0595    0.3478 H       1  UNL1        0.0405
      6 C           4.5924    5.4591    1.7750 C.3     1  UNL1        0.0021
      7 H           5.1300    5.7003    0.8391 H       1  UNL1        0.0405
      8 H           5.3352    5.1125    2.5031 H       1  UNL1        0.0405
      9 H           4.1446    6.4103    2.1390 H       1  UNL1        0.0405
@<TRIPOS>BOND
     1     3     2    1
     2     5     2    1
     3     2     4    1
     4     2     1    1
     5     7     6    1
     6     1     6    1
     7     6     9    1
     8     6     8    1
