@<TRIPOS>MOLECULE
2
 37 37 0 0 0
SMALL
GASTEIGER

@<TRIPOS>ATOM
      1 SI         14.3110    7.0538    7.9285 Si      1  UNL1        0.0000
      2 N          13.3128    6.6587    9.2707 N.pl3   1  UNL1        0.0000
      3 C          12.3107    7.5256    9.7141 C.ar    1  UNL1        0.0000
      4 C          12.6096    8.7627   10.3331 C.ar    1  UNL1        0.0000
      5 C          10.9529    7.1821    9.5473 C.ar    1  UNL1        0.0000
      6 C          10.5470    5.9647    8.7621 C.3     1  UNL1        0.0000
      7 H          11.3091    5.1826    8.8516 H       1  UNL1        0.0000
      8 H           9.6056    5.5713    9.1534 H       1  UNL1        0.0000
      9 C          14.0498    9.1788   10.4501 C.3     1  UNL1        0.0000
     10 H          14.6320    8.2831   10.6758 H       1  UNL1        0.0000
     11 H          14.3799    9.5327    9.4698 H       1  UNL1        0.0000
     12 C          11.5860    9.5678   10.8014 C.ar    1  UNL1        0.0000
     13 H          11.8188   10.5112   11.2733 H       1  UNL1        0.0000
     14 C          16.1648    7.4704    8.2466 C.3     1  UNL1        0.0000
     15 H          16.3273    8.3267    8.8935 H       1  UNL1        0.0000
     16 H          16.6623    7.6763    7.3023 H       1  UNL1        0.0000
     17 H          16.6651    6.6164    8.6919 H       1  UNL1        0.0000
     18 C          10.2592    9.1946   10.6781 C.ar    1  UNL1        0.0000
     19 H           9.4736    9.8317   11.0605 H       1  UNL1        0.0000
     20 C           9.9554    8.0071   10.0419 C.ar    1  UNL1        0.0000
     21 H           8.9210    7.7152    9.9108 H       1  UNL1        0.0000
     22 C          14.3645    5.5720    6.7129 C.3     1  UNL1        0.0000
     23 H          14.4796    4.6322    7.2505 H       1  UNL1        0.0000
     24 H          15.2166    5.6631    6.0466 H       1  UNL1        0.0000
     25 H          13.4731    5.5043    6.0975 H       1  UNL1        0.0000
     26 C          13.5838    8.5511    6.9600 C.3     1  UNL1        0.0000
     27 H          12.6916    8.9241    7.4525 H       1  UNL1        0.0000
     28 H          13.3125    8.2815    5.9444 H       1  UNL1        0.0000
     29 H          14.2925    9.3706    6.8987 H       1  UNL1        0.0000
     30 C          14.3623   10.2538   11.4852 C.3     1  UNL1        0.0000
     31 H          13.9254   11.2125   11.2111 H       1  UNL1        0.0000
     32 H          15.4410   10.3863   11.5546 H       1  UNL1        0.0000
     33 H          13.9921    9.9686   12.4671 H       1  UNL1        0.0000
     34 C          10.3675    6.3230    7.2854 C.3     1  UNL1        0.0000
     35 H           9.6190    7.1069    7.1748 H       1  UNL1        0.0000
     36 H          10.0460    5.4522    6.7171 H       1  UNL1        0.0000
     37 H          11.3067    6.6848    6.8762 H       1  UNL1        0.0000
@<TRIPOS>BOND
     1    28    26    1
     2    24    22    1
     3    25    22    1
     4    22    23    1
     5    22     1    1
     6    36    34    1
     7    37    34    1
     8    29    26    1
     9    26    27    1
    10    26     1    1
    11    35    34    1
    12    34     6    1
    13    16    14    1
    14     1    14    1
    15     1     2    1
    16    14    17    1
    17    14    15    1
    18     6     7    1
    19     6     8    1
    20     6     5    1
    21     2     3    1
    22    11     9    1
    23     5     3   ar
    24     5    20   ar
    25     3     4   ar
    26    21    20    1
    27    20    18   ar
    28     4     9    1
    29     4    12   ar
    30     9    10    1
    31     9    30    1
    32    18    12   ar
    33    18    19    1
    34    12    13    1
    35    31    30    1
    36    30    32    1
    37    30    33    1
