@<TRIPOS>MOLECULE
2
 37 37 0 0 0
SMALL
GASTEIGER

@<TRIPOS>ATOM
      1 SI         15.5859    5.1209   13.2251 Si      1  UNL1        0.0000
      2 N          14.0401    4.6873   12.6193 N.pl3   1  UNL1        0.0000
      3 C          12.9845    4.4458   13.5045 C.ar    1  UNL1        0.0000
      4 C          12.8556    3.2283   14.2042 C.ar    1  UNL1        0.0000
      5 C          12.0053    5.4369   13.7300 C.ar    1  UNL1        0.0000
      6 C          13.8806    2.1345   14.0822 C.3     1  UNL1        0.0000
      7 H          14.5772    2.3884   13.2861 H       1  UNL1        0.0000
      8 H          13.3772    1.1973   13.8240 H       1  UNL1        0.0000
      9 C          10.9303    5.1871   14.5666 C.ar    1  UNL1        0.0000
     10 H          10.1847    5.9593   14.7057 H       1  UNL1        0.0000
     11 C          16.9941    3.8229   13.0376 C.3     1  UNL1        0.0000
     12 H          16.8221    2.9087   13.5971 H       1  UNL1        0.0000
     13 H          17.9362    4.2420   13.3806 H       1  UNL1        0.0000
     14 H          17.1196    3.5626   11.9915 H       1  UNL1        0.0000
     15 C          10.7933    3.9754   15.2170 C.ar    1  UNL1        0.0000
     16 H           9.9450    3.7869   15.8606 H       1  UNL1        0.0000
     17 C          16.2130    6.6810   12.3024 C.3     1  UNL1        0.0000
     18 H          16.0982    6.5482   11.2279 H       1  UNL1        0.0000
     19 H          17.2684    6.8474   12.4945 H       1  UNL1        0.0000
     20 H          15.6788    7.5790   12.5995 H       1  UNL1        0.0000
     21 C          15.5109    5.5781   15.0927 C.3     1  UNL1        0.0000
     22 H          15.6414    6.6440   15.2492 H       1  UNL1        0.0000
     23 H          16.2830    5.0719   15.6631 H       1  UNL1        0.0000
     24 H          14.5494    5.2995   15.5112 H       1  UNL1        0.0000
     25 C          12.1085    6.7958   13.0918 C.3     1  UNL1        0.0000
     26 H          12.8805    6.7853   12.3151 H       1  UNL1        0.0000
     27 H          11.1545    7.0593   12.6250 H       1  UNL1        0.0000
     28 C          14.6574    1.9318   15.3834 C.3     1  UNL1        0.0000
     29 H          15.1800    2.8451   15.6516 H       1  UNL1        0.0000
     30 H          15.3886    1.1324   15.2686 H       1  UNL1        0.0000
     31 H          13.9864    1.6680   16.1992 H       1  UNL1        0.0000
     32 C          12.4672    7.8642   14.1242 C.3     1  UNL1        0.0000
     33 H          11.7502    7.8633   14.9435 H       1  UNL1        0.0000
     34 H          12.4576    8.8483   13.6605 H       1  UNL1        0.0000
     35 H          13.4557    7.6718   14.5334 H       1  UNL1        0.0000
     36 C          11.7642    3.0103   15.0304 C.ar    1  UNL1        0.0000
     37 H          11.6735    2.0570   15.5357 H       1  UNL1        0.0000
@<TRIPOS>BOND
     1    18    17    1
     2    14    11    1
     3    17    19    1
     4    17    20    1
     5    17     1    1
     6    26    25    1
     7     2     1    1
     8     2     3    1
     9    27    25    1
    10    11     1    1
    11    11    13    1
    12    11    12    1
    13    25     5    1
    14    25    32    1
    15     1    21    1
    16     7     6    1
    17     3     5   ar
    18     3     4   ar
    19    34    32    1
    20     5     9   ar
    21     8     6    1
    22     6     4    1
    23     6    28    1
    24    32    35    1
    25    32    33    1
    26     4    36   ar
    27     9    10    1
    28     9    15   ar
    29    36    15   ar
    30    36    37    1
    31    21    22    1
    32    21    24    1
    33    21    23    1
    34    15    16    1
    35    30    28    1
    36    28    29    1
    37    28    31    1
