@<TRIPOS>MOLECULE
2
 37 37 0 0 0
SMALL
GASTEIGER

@<TRIPOS>ATOM
      1 SI         11.0905    2.2900   10.2103 Si      1  UNL1        0.0000
      2 N          12.5522    2.8820    9.5576 N.pl3   1  UNL1        0.0000
      3 C          13.3451    2.0910    8.7002 C.ar    1  UNL1        0.0000
      4 C          14.4082    1.3146    9.2030 C.ar    1  UNL1        0.0000
      5 C          13.1046    2.0814    7.3087 C.ar    1  UNL1        0.0000
      6 C          10.4233    3.6367   11.3950 C.3     1  UNL1        0.0000
      7 H          10.4479    3.2929   12.4227 H       1  UNL1        0.0000
      8 H           9.3942    3.8909   11.1635 H       1  UNL1        0.0000
      9 H          11.0085    4.5565   11.3437 H       1  UNL1        0.0000
     10 C          13.9034    1.3171    6.4754 C.ar    1  UNL1        0.0000
     11 H          13.7181    1.3057    5.4120 H       1  UNL1        0.0000
     12 C           9.6039    1.8916    9.0419 C.3     1  UNL1        0.0000
     13 H           9.2874    2.7533    8.4618 H       1  UNL1        0.0000
     14 H           8.7503    1.5733    9.6349 H       1  UNL1        0.0000
     15 H           9.8337    1.0839    8.3528 H       1  UNL1        0.0000
     16 C          14.7295    1.2915   10.6752 C.3     1  UNL1        0.0000
     17 H          15.6904    1.7936   10.8306 H       1  UNL1        0.0000
     18 H          13.9549    1.8498   11.2120 H       1  UNL1        0.0000
     19 C          15.2050    0.5864    8.3325 C.ar    1  UNL1        0.0000
     20 H          16.0421    0.0269    8.7252 H       1  UNL1        0.0000
     21 C          11.9859    2.9296    6.7632 C.3     1  UNL1        0.0000
     22 H          11.0385    2.5058    7.0948 H       1  UNL1        0.0000
     23 H          12.0699    3.9165    7.2240 H       1  UNL1        0.0000
     24 C          14.9547    0.5712    6.9761 C.ar    1  UNL1        0.0000
     25 H          15.5791   -0.0072    6.3090 H       1  UNL1        0.0000
     26 C          11.9511    3.0871    5.2471 C.3     1  UNL1        0.0000
     27 H          12.9022    3.4596    4.8740 H       1  UNL1        0.0000
     28 H          11.1740    3.7991    4.9713 H       1  UNL1        0.0000
     29 H          11.7276    2.1415    4.7559 H       1  UNL1        0.0000
     30 C          11.2241    0.6464   11.2043 C.3     1  UNL1        0.0000
     31 H          11.8621    0.7560   12.0749 H       1  UNL1        0.0000
     32 H          11.6365   -0.1449   10.5849 H       1  UNL1        0.0000
     33 H          10.2500    0.3153   11.5529 H       1  UNL1        0.0000
     34 C          14.8175   -0.1226   11.2490 C.3     1  UNL1        0.0000
     35 H          13.8923   -0.6657   11.0713 H       1  UNL1        0.0000
     36 H          14.9947   -0.0800   12.3218 H       1  UNL1        0.0000
     37 H          15.6324   -0.6815   10.7946 H       1  UNL1        0.0000
@<TRIPOS>BOND
     1    29    26    1
     2    27    26    1
     3    28    26    1
     4    26    21    1
     5    11    10    1
     6    25    24    1
     7    10    24   ar
     8    10     5   ar
     9    21    22    1
    10    21    23    1
    11    21     5    1
    12    24    19   ar
    13     5     3   ar
    14    19    20    1
    15    19     4   ar
    16    15    12    1
    17    13    12    1
    18     3     4   ar
    19     3     2    1
    20    12    14    1
    21    12     1    1
    22     4    16    1
    23     2     1    1
    24     1    30    1
    25     1     6    1
    26    32    30    1
    27    16    17    1
    28    16    18    1
    29    16    34    1
    30    37    34    1
    31    35    34    1
    32     8     6    1
    33    30    33    1
    34    30    31    1
    35    34    36    1
    36     9     6    1
    37     6     7    1
