@<TRIPOS>MOLECULE
1
 27 26 0 0 0
SMALL
GASTEIGER

@<TRIPOS>ATOM
      1 N           4.1957    5.7008    4.2495 N.3     1  UNL1        0.0000
      2 SI          3.1503    4.5638    3.4911 Si      1  UNL1        0.0000
      3 SI          5.8685    5.5683    4.6266 Si      1  UNL1        0.0000
      4 C           3.4439    4.3802    1.6000 C.3     1  UNL1        0.0000
      5 H           3.2191    5.2944    1.0572 H       1  UNL1        0.0000
      6 H           2.8220    3.5928    1.1844 H       1  UNL1        0.0000
      7 H           4.4774    4.1216    1.3946 H       1  UNL1        0.0000
      8 C           1.3599    5.2072    3.7175 C.3     1  UNL1        0.0000
      9 H           0.9006    4.7964    4.6098 H       1  UNL1        0.0000
     10 H           0.7309    4.9547    2.8702 H       1  UNL1        0.0000
     11 H           1.3651    6.2922    3.8265 H       1  UNL1        0.0000
     12 C           3.3077    2.8150    4.2373 C.3     1  UNL1        0.0000
     13 H           4.3417    2.4881    4.2298 H       1  UNL1        0.0000
     14 H           2.7291    2.0957    3.6669 H       1  UNL1        0.0000
     15 H           2.9575    2.7824    5.2626 H       1  UNL1        0.0000
     16 C           6.8431    4.5235    3.3580 C.3     1  UNL1        0.0000
     17 H           6.4433    3.5173    3.3014 H       1  UNL1        0.0000
     18 H           7.8889    4.4489    3.6380 H       1  UNL1        0.0000
     19 H           6.7973    4.9524    2.3624 H       1  UNL1        0.0000
     20 C           6.5928    7.3475    4.6184 C.3     1  UNL1        0.0000
     21 H           7.2841    7.5014    3.7957 H       1  UNL1        0.0000
     22 H           7.1171    7.5687    5.5421 H       1  UNL1        0.0000
     23 H           5.7882    8.0837    4.5191 H       1  UNL1        0.0000
     24 C           6.1991    4.7994    6.3486 C.3     1  UNL1        0.0000
     25 H           5.8309    5.4364    7.1471 H       1  UNL1        0.0000
     26 H           7.2635    4.6564    6.5085 H       1  UNL1        0.0000
     27 H           5.7209    3.8299    6.4448 H       1  UNL1        0.0000
@<TRIPOS>BOND
     1     5     4    1
     2     6     4    1
     3     7     4    1
     4     4     2    1
     5    19    16    1
     6    10     8    1
     7    17    16    1
     8    16    18    1
     9    16     3    1
    10     2     8    1
    11     2    12    1
    12     2     1    1
    13    14    12    1
    14     8    11    1
    15     8     9    1
    16    21    20    1
    17    13    12    1
    18    12    15    1
    19     1     3    1
    20    23    20    1
    21    20     3    1
    22    20    22    1
    23     3    24    1
    24    24    27    1
    25    24    26    1
    26    24    25    1
