@<TRIPOS>MOLECULE
1
 23 23 0 0 0
SMALL
GASTEIGER

@<TRIPOS>ATOM
      1 N          10.0772    4.7478    1.1657 N.pl3   1  UNL1       -0.2487
      2 C          11.2177    4.0882    0.9345 C.3     1  UNL1        0.0843
      3 H          11.6107    3.5275    1.7661 H       1  UNL1        0.0584
      4 C          11.8754    4.0868   -0.2793 C.2     1  UNL1       -0.0563
      5 H          12.7798    3.5088   -0.3674 H       1  UNL1        0.0595
      6 C          11.3717    4.8123   -1.3553 C.2     1  UNL1       -0.0428
      7 C          10.2045    5.5361   -1.0945 C.2     1  UNL1       -0.0430
      8 H           9.7492    6.1449   -1.8601 H       1  UNL1        0.0633
      9 C           9.6091    5.4800    0.1441 C.2     1  UNL1        0.0124
     10 H           8.7070    6.0357    0.3498 H       1  UNL1        0.0797
     11 C          12.0105    4.8478   -2.7296 C.3     1  UNL1       -0.0129
     12 C          10.9937    4.3374   -3.7607 C.3     1  UNL1       -0.0561
     13 H          10.6832    3.3249   -3.5124 H       1  UNL1        0.0238
     14 H          11.4395    4.3289   -4.7530 H       1  UNL1        0.0238
     15 H          10.1095    4.9679   -3.7901 H       1  UNL1        0.0238
     16 C          12.4059    6.2940   -3.0608 C.3     1  UNL1       -0.0561
     17 H          11.5393    6.9493   -3.0660 H       1  UNL1        0.0238
     18 H          12.8733    6.3380   -4.0420 H       1  UNL1        0.0238
     19 H          13.1135    6.6690   -2.3243 H       1  UNL1        0.0238
     20 C          13.2624    3.9713   -2.8113 C.3     1  UNL1       -0.0561
     21 H          14.0254    4.3133   -2.1160 H       1  UNL1        0.0238
     22 H          13.6766    4.0220   -3.8161 H       1  UNL1        0.0238
     23 H          13.0244    2.9323   -2.5968 H       1  UNL1        0.0238
@<TRIPOS>BOND
     1    14    12    1
     2    18    16    1
     3    22    20    1
     4    15    12    1
     5    12    13    1
     6    12    11    1
     7    17    16    1
     8    16    11    1
     9    16    19    1
    10    20    11    1
    11    20    23    1
    12    20    21    1
    13    11     6    1
    14     8     7    1
    15     6     7    1
    16     6     4    2
    17     7     9    2
    18     5     4    1
    19     4     2    1
    20     9    10    1
    21     9     1    1
    22     2     1    1
    23     2     3    1
