@<TRIPOS>MOLECULE
1
 23 23 0 0 0
SMALL
GASTEIGER

@<TRIPOS>ATOM
      1 N           8.6615    6.3070    2.9060 N.pl3   1  UNL1       -0.2487
      2 C           7.4591    6.7957    3.2364 C.3     1  UNL1        0.0843
      3 H           6.6373    6.1023    3.1708 H       1  UNL1        0.0584
      4 C           7.2487    8.0920    3.6512 C.2     1  UNL1       -0.0563
      5 H           6.2462    8.3916    3.9128 H       1  UNL1        0.0595
      6 C           8.3101    8.9945    3.7357 C.2     1  UNL1       -0.0428
      7 C           9.5514    8.4933    3.3460 C.2     1  UNL1       -0.0430
      8 H          10.4330    9.1126    3.3542 H       1  UNL1        0.0633
      9 C           9.6764    7.1802    2.9452 C.2     1  UNL1        0.0124
     10 H          10.6350    6.7867    2.6428 H       1  UNL1        0.0797
     11 C           8.0823   10.4112    4.2242 C.3     1  UNL1       -0.0129
     12 C           9.3717   11.2359    4.2424 C.3     1  UNL1       -0.0561
     13 H           9.7948   11.3226    3.2442 H       1  UNL1        0.0238
     14 H          10.1100   10.7913    4.9054 H       1  UNL1        0.0238
     15 H           9.1557   12.2389    4.6043 H       1  UNL1        0.0238
     16 C           7.0747   11.1061    3.2974 C.3     1  UNL1       -0.0561
     17 H           6.9076   12.1290    3.6276 H       1  UNL1        0.0238
     18 H           6.1193   10.5890    3.2938 H       1  UNL1        0.0238
     19 H           7.4544   11.1300    2.2781 H       1  UNL1        0.0238
     20 C           7.5219   10.3538    5.6525 C.3     1  UNL1       -0.0561
     21 H           8.2202    9.8408    6.3102 H       1  UNL1        0.0238
     22 H           6.5744    9.8235    5.6836 H       1  UNL1        0.0238
     23 H           7.3636   11.3605    6.0333 H       1  UNL1        0.0238
@<TRIPOS>BOND
     1    19    16    1
     2    10     9    1
     3     1     9    1
     4     1     2    1
     5     9     7    2
     6     3     2    1
     7     2     4    1
     8    13    12    1
     9    18    16    1
    10    16    17    1
    11    16    11    1
    12     7     8    1
    13     7     6    1
    14     4     6    2
    15     4     5    1
    16     6    11    1
    17    11    12    1
    18    11    20    1
    19    12    15    1
    20    12    14    1
    21    20    22    1
    22    20    23    1
    23    20    21    1
