@<TRIPOS>MOLECULE
1
 11 11 0 0 0
SMALL
GASTEIGER

@<TRIPOS>ATOM
      1 N          -0.1605    9.3344    3.6979 N.pl3   1  UNL1       -0.2487
      2 C          -1.0248    9.6313    2.7171 C.3     1  UNL1        0.0840
      3 C          -2.3488    9.2349    2.7403 C.2     1  UNL1       -0.0600
      4 C          -2.8100    8.4689    3.8068 C.2     1  UNL1       -0.0626
      5 C          -1.9031    8.1112    4.7936 C.2     1  UNL1       -0.0466
      6 C          -0.5975    8.5661    4.7014 C.2     1  UNL1        0.0121
      7 H          -0.6143   10.2146    1.8993 H       1  UNL1        0.0584
      8 H          -3.0114    9.5158    1.9368 H       1  UNL1        0.0592
      9 H          -3.8388    8.1486    3.8578 H       1  UNL1        0.0615
     10 H          -2.2018    7.4923    5.6254 H       1  UNL1        0.0630
     11 H           0.1283    8.2999    5.4635 H       1  UNL1        0.0797
@<TRIPOS>BOND
     1     7     2    1
     2     8     3    1
     3     2     3    1
     4     2     1    1
     5     3     4    2
     6     1     6    1
     7     4     9    1
     8     4     5    1
     9     6     5    2
    10     6    11    1
    11     5    10    1
