@<TRIPOS>MOLECULE
1
 11 11 0 0 0
SMALL
GASTEIGER

@<TRIPOS>ATOM
      1 N          -1.6881    5.9344   18.5490 N.pl3   1  UNL1       -0.2487
      2 C          -1.8703    6.5915   19.6934 C.3     1  UNL1        0.0840
      3 C          -0.9406    7.4900   20.1933 C.2     1  UNL1       -0.0600
      4 C           0.2238    7.7248   19.4781 C.2     1  UNL1       -0.0626
      5 C           0.4082    7.0445   18.2855 C.2     1  UNL1       -0.0466
      6 C          -0.5723    6.1599   17.8628 C.2     1  UNL1        0.0121
      7 H          -2.7982    6.3752   20.2123 H       1  UNL1        0.0584
      8 H          -1.1285    7.9956   21.1270 H       1  UNL1        0.0592
      9 H           0.9670    8.4190   19.8408 H       1  UNL1        0.0615
     10 H           1.2956    7.1933   17.6908 H       1  UNL1        0.0630
     11 H          -0.4590    5.5999   16.9430 H       1  UNL1        0.0797
@<TRIPOS>BOND
     1    11     6    1
     2    10     5    1
     3     6     5    2
     4     6     1    1
     5     5     4    1
     6     1     2    1
     7     4     9    1
     8     4     3    2
     9     2     3    1
    10     2     7    1
    11     3     8    1
