@<TRIPOS>MOLECULE
1
 9 8 0 0 0
SMALL
GASTEIGER

@<TRIPOS>ATOM
      1 N           0.0542   -0.5716   16.3103 N.3     1  UNL1       -0.2469
      2 C          -0.8636   -1.6330   16.6778 C.3     1  UNL1        0.0021
      3 C           1.1810   -0.5699   17.2217 C.3     1  UNL1        0.0021
      4 H          -1.6309   -1.7508   15.9126 H       1  UNL1        0.0405
      5 H          -1.3606   -1.4149   17.6395 H       1  UNL1        0.0405
      6 H          -0.3451   -2.6001   16.8034 H       1  UNL1        0.0405
      7 H           1.9255    0.1572   16.8968 H       1  UNL1        0.0405
      8 H           1.6643   -1.5616   17.2779 H       1  UNL1        0.0405
      9 H           0.8665   -0.3113   18.2477 H       1  UNL1        0.0405
@<TRIPOS>BOND
     1     4     2    1
     2     1     2    1
     3     1     3    1
     4     2     6    1
     5     2     5    1
     6     7     3    1
     7     3     8    1
     8     3     9    1
