@<TRIPOS>MOLECULE
1
 36 37 0 0 0
SMALL
GASTEIGER

@<TRIPOS>ATOM
      1 N          -1.9161    3.5455    8.6387 N.pl3   1  UNL1        0.0000
      2 N           0.3357    2.3985    7.7013 N.ar    1  UNL1        0.0000
      3 SI         -1.4307    2.5039    7.3729 Si      1  UNL1        0.0000
      4 C          -1.5984    3.2155    5.5995 C.3     1  UNL1        0.0000
      5 H          -2.2112    2.5759    4.9714 H       1  UNL1        0.0000
      6 H          -0.6343    3.3251    5.1119 H       1  UNL1        0.0000
      7 H          -2.0750    4.1910    5.6224 H       1  UNL1        0.0000
      8 C          -2.3050    0.7986    7.3152 C.3     1  UNL1        0.0000
      9 H          -2.1863    0.2208    8.2244 H       1  UNL1        0.0000
     10 H          -1.9651    0.1912    6.4836 H       1  UNL1        0.0000
     11 H          -3.3701    0.9584    7.1776 H       1  UNL1        0.0000
     12 C          -3.0410    4.3327    8.5437 C.ar    1  UNL1        0.0000
     13 C          -4.1527    4.0083    7.7516 C.ar    1  UNL1        0.0000
     14 H          -4.1364    3.0907    7.1856 H       1  UNL1        0.0000
     15 C          -5.2572    4.8328    7.6922 C.ar    1  UNL1        0.0000
     16 H          -6.0984    4.5483    7.0754 H       1  UNL1        0.0000
     17 C          -5.2994    6.0173    8.4101 C.ar    1  UNL1        0.0000
     18 H          -6.1659    6.6589    8.3601 H       1  UNL1        0.0000
     19 C          -4.2048    6.3696    9.1835 C.ar    1  UNL1        0.0000
     20 H          -4.2133    7.2999    9.7354 H       1  UNL1        0.0000
     21 C          -3.0973    5.5481    9.2492 C.ar    1  UNL1        0.0000
     22 H          -2.2284    5.8463    9.8373 H       1  UNL1        0.0000
     23 C           1.1466    3.5081    7.5304 C.ar    1  UNL1        0.0000
     24 C           2.4377    3.1018    7.3455 C.ar    1  UNL1        0.0000
     25 H           3.2890    3.7360    7.1817 H       1  UNL1        0.0000
     26 C           2.4433    1.6901    7.4035 C.ar    1  UNL1        0.0000
     27 H           3.2996    1.0503    7.3054 H       1  UNL1        0.0000
     28 C           1.1535    1.2909    7.6135 C.ar    1  UNL1        0.0000
     29 C           0.6562    4.9147    7.5923 C.3     1  UNL1        0.0000
     30 H           1.4976    5.5874    7.4370 H       1  UNL1        0.0000
     31 H           0.2034    5.1289    8.5702 H       1  UNL1        0.0000
     32 H          -0.0941    5.1134    6.8304 H       1  UNL1        0.0000
     33 C           0.6807   -0.1092    7.7872 C.3     1  UNL1        0.0000
     34 H           1.5433   -0.7570    7.9301 H       1  UNL1        0.0000
     35 H           0.1371   -0.4601    6.9120 H       1  UNL1        0.0000
     36 H           0.0308   -0.1934    8.6555 H       1  UNL1        0.0000
@<TRIPOS>BOND
     1     5     4    1
     2     6     4    1
     3     4     7    1
     4     4     3    1
     5    10     8    1
     6    32    29    1
     7    35    33    1
     8    16    15    1
     9    11     8    1
    10    25    24    1
    11    14    13    1
    12    27    26    1
    13     8     3    1
    14     8     9    1
    15    24    26   ar
    16    24    23   ar
    17     3     2    1
    18     3     1    1
    19    26    28   ar
    20    30    29    1
    21    23    29    1
    22    23     2   ar
    23    29    31    1
    24    28     2   ar
    25    28    33    1
    26    15    13   ar
    27    15    17   ar
    28    13    12   ar
    29    33    34    1
    30    33    36    1
    31    18    17    1
    32    17    19   ar
    33    12     1    1
    34    12    21   ar
    35    19    21   ar
    36    19    20    1
    37    21    22    1
