@<TRIPOS>MOLECULE
1
 21 20 0 0 0
SMALL
GASTEIGER

@<TRIPOS>ATOM
      1 N          10.4529   16.3402   -3.8377 N.3     1  UNL1        0.0000
      2 SI         11.0525   17.8137   -3.1831 Si      1  UNL1        0.0000
      3 H          12.5070   17.6060   -2.8783 H       1  UNL1        0.0000
      4 C          10.9471   19.3302   -4.3389 C.3     1  UNL1        0.0000
      5 H          11.3126   19.1027   -5.3353 H       1  UNL1        0.0000
      6 H          11.5294   20.1614   -3.9532 H       1  UNL1        0.0000
      7 H           9.9215   19.6688   -4.4394 H       1  UNL1        0.0000
      8 C          10.2020   18.3150   -1.5545 C.3     1  UNL1        0.0000
      9 H           9.1654   18.5810   -1.7311 H       1  UNL1        0.0000
     10 H          10.6899   19.1681   -1.0946 H       1  UNL1        0.0000
     11 H          10.2084   17.5025   -0.8362 H       1  UNL1        0.0000
     12 SI          8.7551   16.0678   -3.8949 Si      1  UNL1        0.0000
     13 H           8.1589   15.8583   -2.5461 H       1  UNL1        0.0000
     14 C           7.7300   17.4476   -4.7187 C.3     1  UNL1        0.0000
     15 H           7.6681   18.3136   -4.0684 H       1  UNL1        0.0000
     16 H           6.7156   17.1247   -4.9301 H       1  UNL1        0.0000
     17 H           8.1814   17.7682   -5.6521 H       1  UNL1        0.0000
     18 C           8.4930   14.4404   -4.8668 C.3     1  UNL1        0.0000
     19 H           8.6836   14.5765   -5.9296 H       1  UNL1        0.0000
     20 H           7.4710   14.0867   -4.7619 H       1  UNL1        0.0000
     21 H           9.1484   13.6463   -4.4977 H       1  UNL1        0.0000
@<TRIPOS>BOND
     1    19    18    1
     2    17    14    1
     3     5     4    1
     4    16    14    1
     5    18    20    1
     6    18    21    1
     7    18    12    1
     8    14    15    1
     9    14    12    1
    10     7     4    1
    11     4     6    1
    12     4     2    1
    13    12     1    1
    14    12    13    1
    15     1     2    1
    16     2     3    1
    17     2     8    1
    18     9     8    1
    19     8    10    1
    20     8    11    1
