@<TRIPOS>MOLECULE
1
 21 20 0 0 0
SMALL
GASTEIGER

@<TRIPOS>ATOM
      1 N          11.1836   14.7743   -7.0130 N.3     1  UNL1        0.0000
      2 SI         10.8090   16.2614   -7.8070 Si      1  UNL1        0.0000
      3 H          11.1191   17.3580   -6.8405 H       1  UNL1        0.0000
      4 C          11.8826   16.5639   -9.3629 C.3     1  UNL1        0.0000
      5 H          12.9466   16.5310   -9.1473 H       1  UNL1        0.0000
      6 H          11.6686   17.5345   -9.7987 H       1  UNL1        0.0000
      7 H          11.6833   15.8147  -10.1220 H       1  UNL1        0.0000
      8 C           9.0049   16.5139   -8.3762 C.3     1  UNL1        0.0000
      9 H           8.7878   15.9653   -9.2866 H       1  UNL1        0.0000
     10 H           8.8139   17.5640   -8.5776 H       1  UNL1        0.0000
     11 H           8.2960   16.1922   -7.6207 H       1  UNL1        0.0000
     12 SI         11.0334   13.2712   -7.8453 Si      1  UNL1        0.0000
     13 H          10.6957   12.2234   -6.8293 H       1  UNL1        0.0000
     14 C           9.6766   13.1522   -9.1765 C.3     1  UNL1        0.0000
     15 H           8.7050   13.4236   -8.7785 H       1  UNL1        0.0000
     16 H           9.6013   12.1413   -9.5650 H       1  UNL1        0.0000
     17 H           9.8863   13.8089  -10.0142 H       1  UNL1        0.0000
     18 C          12.6488   12.7369   -8.7250 C.3     1  UNL1        0.0000
     19 H          12.9516   13.4701   -9.4661 H       1  UNL1        0.0000
     20 H          12.5071   11.7924   -9.2406 H       1  UNL1        0.0000
     21 H          13.4748   12.6099   -8.0334 H       1  UNL1        0.0000
@<TRIPOS>BOND
     1     7     4    1
     2    17    14    1
     3     6     4    1
     4    16    14    1
     5    19    18    1
     6     4     5    1
     7     4     2    1
     8     9     8    1
     9    20    18    1
    10    14    15    1
    11    14    12    1
    12    18    21    1
    13    18    12    1
    14    10     8    1
    15     8     2    1
    16     8    11    1
    17    12     1    1
    18    12    13    1
    19     2     1    1
    20     2     3    1
