@<TRIPOS>MOLECULE
1
 42 41 0 0 0
SMALL
GASTEIGER

@<TRIPOS>ATOM
      1 N           2.4332    6.1117   17.0152 N.3     1  UNL1        0.0000
      2 SI          2.7753    6.6049   18.6110 Si      1  UNL1        0.0000
      3 C           2.5158    8.5376   18.5362 C.3     1  UNL1        0.0000
      4 C           3.0762    9.0574   17.2110 C.3     1  UNL1        0.0000
      5 C           1.0278    8.8824   18.5310 C.3     1  UNL1        0.0000
      6 C           3.1601    9.3048   19.6919 C.3     1  UNL1        0.0000
      7 C           4.6286    6.1042   19.0511 C.3     1  UNL1        0.0000
      8 C           5.6481    7.0498   18.4098 C.3     1  UNL1        0.0000
      9 C           4.9232    4.7154   18.4755 C.3     1  UNL1        0.0000
     10 C           4.9119    6.0789   20.5526 C.3     1  UNL1        0.0000
     11 C           1.4786    5.7509   19.8219 C.3     1  UNL1        0.0000
     12 C           1.7582    4.2465   19.8761 C.3     1  UNL1        0.0000
     13 C           0.0660    5.9243   19.2375 C.3     1  UNL1        0.0000
     14 C           1.4643    6.2785   21.2577 C.3     1  UNL1        0.0000
     15 H           2.5702    5.1117   16.8783 H       1  UNL1        0.0000
     16 H           2.8816   10.1279   17.1069 H       1  UNL1        0.0000
     17 H           4.1492    8.9019   17.1428 H       1  UNL1        0.0000
     18 H           2.5740    8.5190   16.3825 H       1  UNL1        0.0000
     19 H           0.9022    9.9508   18.3433 H       1  UNL1        0.0000
     20 H           0.4920    8.3175   17.7546 H       1  UNL1        0.0000
     21 H           0.5797    8.6733   19.4970 H       1  UNL1        0.0000
     22 H           2.9255   10.3678   19.6177 H       1  UNL1        0.0000
     23 H           2.7879    8.9462   20.6473 H       1  UNL1        0.0000
     24 H           4.2407    9.2050   19.6932 H       1  UNL1        0.0000
     25 H           6.6580    6.6670   18.5662 H       1  UNL1        0.0000
     26 H           5.4817    7.1287   17.3409 H       1  UNL1        0.0000
     27 H           5.6067    8.0424   18.8463 H       1  UNL1        0.0000
     28 H           5.9469    4.4201   18.7095 H       1  UNL1        0.0000
     29 H           4.2581    3.9605   18.8802 H       1  UNL1        0.0000
     30 H           4.8126    4.7245   17.3942 H       1  UNL1        0.0000
     31 H           5.9687    5.8755   20.7328 H       1  UNL1        0.0000
     32 H           4.6699    7.0334   21.0117 H       1  UNL1        0.0000
     33 H           4.3398    5.3006   21.0483 H       1  UNL1        0.0000
     34 H           0.9828    3.7348   20.4483 H       1  UNL1        0.0000
     35 H           1.7758    3.8232   18.8734 H       1  UNL1        0.0000
     36 H           2.7088    4.0358   20.3564 H       1  UNL1        0.0000
     37 H          -0.5669    5.0818   19.5176 H       1  UNL1        0.0000
     38 H          -0.4072    6.8177   19.6297 H       1  UNL1        0.0000
     39 H           0.0898    6.0073   18.1473 H       1  UNL1        0.0000
     40 H           0.6918    5.7684   21.8345 H       1  UNL1        0.0000
     41 H           2.4154    6.1153   21.7545 H       1  UNL1        0.0000
     42 H           1.2477    7.3428   21.2802 H       1  UNL1        0.0000
@<TRIPOS>BOND
     1    18     4    1
     2    15     1    1
     3     1     2    1
     4    16     4    1
     5    17     4    1
     6     4     3    1
     7    26     8    1
     8    30     9    1
     9    20     5    1
    10    39    13    1
    11    19     5    1
    12     8    25    1
    13     8    27    1
    14     8     7    1
    15     9    28    1
    16     9    29    1
    17     9     7    1
    18     5     3    1
    19     5    21    1
    20     3     2    1
    21     3     6    1
    22     2     7    1
    23     2    11    1
    24    35    12    1
    25     7    10    1
    26    13    37    1
    27    13    38    1
    28    13    11    1
    29    22     6    1
    30     6    24    1
    31     6    23    1
    32    11    12    1
    33    11    14    1
    34    12    36    1
    35    12    34    1
    36    10    31    1
    37    10    32    1
    38    10    33    1
    39    14    42    1
    40    14    41    1
    41    14    40    1
