@<TRIPOS>MOLECULE
1
 42 41 0 0 0
SMALL
GASTEIGER

@<TRIPOS>ATOM
      1 N           1.7253    6.4685   13.4696 N.3     1  UNL1        0.0000
      2 SI          3.0936    6.6925   12.4825 Si      1  UNL1        0.0000
      3 C           4.5840    5.8752   13.4693 C.3     1  UNL1        0.0000
      4 C           5.8517    5.6625   12.6419 C.3     1  UNL1        0.0000
      5 C           4.9470    6.7311   14.6828 C.3     1  UNL1        0.0000
      6 C           4.1437    4.5265   14.0465 C.3     1  UNL1        0.0000
      7 C           3.3659    8.6398   12.2835 C.3     1  UNL1        0.0000
      8 C           3.0631    9.3109   13.6299 C.3     1  UNL1        0.0000
      9 C           4.7695    9.0552   11.8398 C.3     1  UNL1        0.0000
     10 C           2.3712    9.2339   11.2828 C.3     1  UNL1        0.0000
     11 C           2.8147    5.8281   10.7447 C.3     1  UNL1        0.0000
     12 C           1.4032    6.1165   10.2261 C.3     1  UNL1        0.0000
     13 C           2.9182    4.3053   10.8560 C.3     1  UNL1        0.0000
     14 C           3.8176    6.2799    9.6832 C.3     1  UNL1        0.0000
     15 H           0.9241    6.1005   12.9656 H       1  UNL1        0.0000
     16 H           6.6508    5.2642   13.2698 H       1  UNL1        0.0000
     17 H           5.6834    4.9533   11.8365 H       1  UNL1        0.0000
     18 H           6.2011    6.5945   12.2071 H       1  UNL1        0.0000
     19 H           5.7097    6.2195   15.2737 H       1  UNL1        0.0000
     20 H           5.3609    7.6916   14.3901 H       1  UNL1        0.0000
     21 H           4.0641    6.8826   15.3147 H       1  UNL1        0.0000
     22 H           4.9408    4.1020   14.6598 H       1  UNL1        0.0000
     23 H           3.2612    4.6690   14.6741 H       1  UNL1        0.0000
     24 H           3.9100    3.8083   13.2682 H       1  UNL1        0.0000
     25 H           2.9519   10.3888   13.4985 H       1  UNL1        0.0000
     26 H           2.1223    8.9155   14.0451 H       1  UNL1        0.0000
     27 H           3.8662    9.1523   14.3439 H       1  UNL1        0.0000
     28 H           4.8261   10.1402   11.7385 H       1  UNL1        0.0000
     29 H           5.5243    8.7527   12.5601 H       1  UNL1        0.0000
     30 H           5.0214    8.6164   10.8788 H       1  UNL1        0.0000
     31 H           2.4521   10.3224   11.2730 H       1  UNL1        0.0000
     32 H           2.5660    8.8870   10.2731 H       1  UNL1        0.0000
     33 H           1.3515    8.9754   11.5536 H       1  UNL1        0.0000
     34 H           1.2600    5.6459    9.2522 H       1  UNL1        0.0000
     35 H           0.6521    5.7126   10.9017 H       1  UNL1        0.0000
     36 H           1.2208    7.1783   10.1137 H       1  UNL1        0.0000
     37 H           2.6511    3.8424    9.9046 H       1  UNL1        0.0000
     38 H           3.9274    3.9893   11.1003 H       1  UNL1        0.0000
     39 H           2.2366    3.9227   11.6130 H       1  UNL1        0.0000
     40 H           3.6631    5.7219    8.7582 H       1  UNL1        0.0000
     41 H           3.7007    7.3343    9.4529 H       1  UNL1        0.0000
     42 H           4.8397    6.1112   10.0092 H       1  UNL1        0.0000
@<TRIPOS>BOND
     1    40    14    1
     2    34    12    1
     3    41    14    1
     4    14    42    1
     5    14    11    1
     6    37    13    1
     7    36    12    1
     8    12    11    1
     9    12    35    1
    10    32    10    1
    11    11    13    1
    12    11     2    1
    13    13    38    1
    14    13    39    1
    15    30     9    1
    16    31    10    1
    17    10    33    1
    18    10     7    1
    19    28     9    1
    20    17     4    1
    21     9     7    1
    22     9    29    1
    23    18     4    1
    24     7     2    1
    25     7     8    1
    26     2     3    1
    27     2     1    1
    28     4    16    1
    29     4     3    1
    30    15     1    1
    31    24     6    1
    32     3     6    1
    33     3     5    1
    34    25     8    1
    35     8    26    1
    36     8    27    1
    37     6    22    1
    38     6    23    1
    39    20     5    1
    40     5    19    1
    41     5    21    1
