@<TRIPOS>MOLECULE
1
 11 11 0 0 0
SMALL
GASTEIGER

@<TRIPOS>ATOM
      1 N           6.3720    2.9496   -0.7013 N.pl3   1  UNL1       -0.2487
      2 C           7.5052    3.3986   -0.1349 C.3     1  UNL1        0.0840
      3 C           8.7641    3.1763   -0.6619 C.2     1  UNL1       -0.0600
      4 C           8.8921    2.4678   -1.8468 C.2     1  UNL1       -0.0626
      5 C           7.7253    2.0188   -2.4518 C.2     1  UNL1       -0.0466
      6 C           6.5059    2.2772   -1.8579 C.2     1  UNL1        0.0121
      7 H           7.3831    3.9420    0.7952 H       1  UNL1        0.0584
      8 H           9.6314    3.5575   -0.1459 H       1  UNL1        0.0592
      9 H           9.8597    2.2728   -2.2820 H       1  UNL1        0.0615
     10 H           7.7595    1.4660   -3.3774 H       1  UNL1        0.0630
     11 H           5.5830    1.9179   -2.2975 H       1  UNL1        0.0797
@<TRIPOS>BOND
     1    10     5    1
     2     5     6    2
     3     5     4    1
     4    11     6    1
     5     9     4    1
     6     6     1    1
     7     4     3    2
     8     1     2    1
     9     3     8    1
    10     3     2    1
    11     2     7    1
