@<TRIPOS>MOLECULE
1
 27 26 0 0 0
SMALL
GASTEIGER

@<TRIPOS>ATOM
      1 N           6.5390    9.1142    1.6034 N.3     1  UNL1        0.0000
      2 SI          5.5189   10.5154    1.6382 Si      1  UNL1        0.0000
      3 C           4.9953   10.9357    3.4314 C.3     1  UNL1        0.0000
      4 C           3.9424   10.0306    0.6821 C.3     1  UNL1        0.0000
      5 C           6.3377   12.0517    0.8423 C.3     1  UNL1        0.0000
      6 P           8.0033    8.8681    2.1734 P.3     1  UNL1        0.0000
      7 C           8.2416    7.2570    3.0088 C.3     1  UNL1        0.0000
      8 C           9.5024    9.1425    1.1453 C.3     1  UNL1        0.0000
      9 C           8.3286   10.0296    3.5638 C.3     1  UNL1        0.0000
     10 H           5.7242   11.5561    3.9415 H       1  UNL1        0.0000
     11 H           4.8421   10.0393    4.0232 H       1  UNL1        0.0000
     12 H           4.0596   11.4833    3.4167 H       1  UNL1        0.0000
     13 H           4.1674    9.8349   -0.3602 H       1  UNL1        0.0000
     14 H           3.2017   10.8224    0.7214 H       1  UNL1        0.0000
     15 H           3.4968    9.1368    1.1071 H       1  UNL1        0.0000
     16 H           6.7780   11.7970   -0.1171 H       1  UNL1        0.0000
     17 H           7.1253   12.4625    1.4679 H       1  UNL1        0.0000
     18 H           5.6073   12.8372    0.6785 H       1  UNL1        0.0000
     19 H           8.3071    6.4473    2.2866 H       1  UNL1        0.0000
     20 H           7.3790    7.0782    3.6495 H       1  UNL1        0.0000
     21 H           9.1503    7.2973    3.6075 H       1  UNL1        0.0000
     22 H           9.5801    8.3692    0.3846 H       1  UNL1        0.0000
     23 H          10.3825    9.1297    1.7862 H       1  UNL1        0.0000
     24 H           9.4164   10.1098    0.6523 H       1  UNL1        0.0000
     25 H           8.2893   11.0508    3.1921 H       1  UNL1        0.0000
     26 H           9.3026    9.8462    4.0106 H       1  UNL1        0.0000
     27 H           7.5543    9.8979    4.3157 H       1  UNL1        0.0000
@<TRIPOS>BOND
     1    13     4    1
     2    16     5    1
     3    22     8    1
     4    24     8    1
     5    18     5    1
     6     4    14    1
     7     4    15    1
     8     4     2    1
     9     5    17    1
    10     5     2    1
    11     8    23    1
    12     8     6    1
    13     1     2    1
    14     1     6    1
    15     2     3    1
    16     6     7    1
    17     6     9    1
    18    19     7    1
    19     7    21    1
    20     7    20    1
    21    25     9    1
    22    12     3    1
    23     3    10    1
    24     3    11    1
    25     9    26    1
    26     9    27    1
