@<TRIPOS>MOLECULE
1
 27 26 0 0 0
SMALL
GASTEIGER

@<TRIPOS>ATOM
      1 N           6.7238    6.5108   -1.6032 N.3     1  UNL1        0.0000
      2 SI          7.7442    5.1098   -1.6381 Si      1  UNL1        0.0000
      3 C           8.2676    4.6894   -3.4313 C.3     1  UNL1        0.0000
      4 H           7.5388    4.0687   -3.9413 H       1  UNL1        0.0000
      5 H           8.4205    5.5859   -4.0233 H       1  UNL1        0.0000
      6 H           9.2035    4.1421   -3.4167 H       1  UNL1        0.0000
      7 C           9.3207    5.5950   -0.6824 C.3     1  UNL1        0.0000
      8 H           9.0958    5.7912    0.3599 H       1  UNL1        0.0000
      9 H          10.0614    4.8031   -0.7213 H       1  UNL1        0.0000
     10 H           9.7663    6.4886   -1.1077 H       1  UNL1        0.0000
     11 C           6.9258    3.5734   -0.8419 C.3     1  UNL1        0.0000
     12 H           6.4854    3.8281    0.1174 H       1  UNL1        0.0000
     13 H           6.1383    3.1623   -1.4675 H       1  UNL1        0.0000
     14 H           7.6564    2.7882   -0.6780 H       1  UNL1        0.0000
     15 P           5.2596    6.7567   -2.1735 P.3     1  UNL1        0.0000
     16 C           5.0212    8.3676   -3.0089 C.3     1  UNL1        0.0000
     17 H           4.9557    9.1774   -2.2867 H       1  UNL1        0.0000
     18 H           5.8837    8.5465   -3.6496 H       1  UNL1        0.0000
     19 H           4.1124    8.3273   -3.6077 H       1  UNL1        0.0000
     20 C           3.7605    6.4824   -1.1453 C.3     1  UNL1        0.0000
     21 H           3.6827    7.2558   -0.3848 H       1  UNL1        0.0000
     22 H           2.8804    6.4950   -1.7863 H       1  UNL1        0.0000
     23 H           3.8465    5.5151   -0.6521 H       1  UNL1        0.0000
     24 C           4.9343    5.5951   -3.5637 C.3     1  UNL1        0.0000
     25 H           4.9737    4.5739   -3.1920 H       1  UNL1        0.0000
     26 H           3.9604    5.7782   -4.0106 H       1  UNL1        0.0000
     27 H           5.7087    5.7267   -4.3157 H       1  UNL1        0.0000
@<TRIPOS>BOND
     1    27    24    1
     2     5     3    1
     3    26    24    1
     4     4     3    1
     5    18    16    1
     6    19    16    1
     7    24    25    1
     8    24    15    1
     9     3     6    1
    10     3     2    1
    11    16    17    1
    12    16    15    1
    13    15     1    1
    14    15    20    1
    15    22    20    1
    16     2     1    1
    17     2    11    1
    18     2     7    1
    19    13    11    1
    20    20    23    1
    21    20    21    1
    22    10     7    1
    23    11    14    1
    24    11    12    1
    25     9     7    1
    26     7     8    1
