@<TRIPOS>MOLECULE
1
 21 20 0 0 0
SMALL
GASTEIGER

@<TRIPOS>ATOM
      1 N           3.0784    0.7916    0.9305 N.3     1  UNL1       -0.2348
      2 C           3.4569   -0.3777    0.1558 C.3     1  UNL1        0.0200
      3 C           2.7612    0.5506    2.3158 C.3     1  UNL1        0.0200
      4 C           4.8895   -0.2331   -0.3664 C.3     1  UNL1       -0.0484
      5 C           1.5274   -0.3499    2.4958 C.3     1  UNL1       -0.0484
      6 C           2.4944   -0.5537   -1.0231 C.3     1  UNL1       -0.0484
      7 C           3.9564   -0.0042    3.1115 C.3     1  UNL1       -0.0484
      8 H           3.4072   -1.2793    0.7833 H       1  UNL1        0.0471
      9 H           2.5043    1.5213    2.7644 H       1  UNL1        0.0471
     10 H           5.5913   -0.1231    0.4583 H       1  UNL1        0.0245
     11 H           4.9325    0.6563   -0.9931 H       1  UNL1        0.0245
     12 H           5.1673   -1.1052   -0.9526 H       1  UNL1        0.0245
     13 H           0.6892    0.0515    1.9283 H       1  UNL1        0.0245
     14 H           1.2502   -0.3921    3.5472 H       1  UNL1        0.0245
     15 H           1.7231   -1.3630    2.1526 H       1  UNL1        0.0245
     16 H           1.4769   -0.7057   -0.6674 H       1  UNL1        0.0245
     17 H           2.7867   -1.4114   -1.6240 H       1  UNL1        0.0245
     18 H           2.5268    0.3493   -1.6300 H       1  UNL1        0.0245
     19 H           4.8390    0.6083    2.9264 H       1  UNL1        0.0245
     20 H           4.1831   -1.0278    2.8224 H       1  UNL1        0.0245
     21 H           3.7348    0.0084    4.1769 H       1  UNL1        0.0245
@<TRIPOS>BOND
     1    18     6    1
     2    17     6    1
     3     6    16    1
     4     6     2    1
     5    11     4    1
     6    12     4    1
     7     4     2    1
     8     4    10    1
     9     2     8    1
    10     2     1    1
    11     1     3    1
    12    13     5    1
    13    15     5    1
    14     3     5    1
    15     3     9    1
    16     3     7    1
    17     5    14    1
    18    20     7    1
    19    19     7    1
    20     7    21    1
