@<TRIPOS>MOLECULE
1
 21 20 0 0 0
SMALL
GASTEIGER

@<TRIPOS>ATOM
      1 N           3.8454    3.8935    1.2308 N.3     1  UNL1       -0.2348
      2 C           3.2826    4.2564    2.5095 C.3     1  UNL1        0.0200
      3 C           4.2267    4.0088    3.6993 C.3     1  UNL1       -0.0484
      4 C           2.7731    5.7077    2.5208 C.3     1  UNL1       -0.0484
      5 C           5.0693    4.5846    0.8595 C.3     1  UNL1        0.0200
      6 C           6.2218    3.5743    0.7793 C.3     1  UNL1       -0.0484
      7 C           4.9123    5.2903   -0.4883 C.3     1  UNL1       -0.0484
      8 H           2.3961    3.6219    2.6665 H       1  UNL1        0.0471
      9 H           4.5978    2.9849    3.6810 H       1  UNL1        0.0245
     10 H           3.6918    4.1670    4.6339 H       1  UNL1        0.0245
     11 H           5.0781    4.6851    3.6775 H       1  UNL1        0.0245
     12 H           2.1042    5.8646    1.6769 H       1  UNL1        0.0245
     13 H           3.5973    6.4136    2.4471 H       1  UNL1        0.0245
     14 H           2.2331    5.9064    3.4445 H       1  UNL1        0.0245
     15 H           5.3236    5.3381    1.6187 H       1  UNL1        0.0471
     16 H           6.3482    3.0585    1.7305 H       1  UNL1        0.0245
     17 H           7.1527    4.0798    0.5327 H       1  UNL1        0.0245
     18 H           5.9874    2.8453    0.0056 H       1  UNL1        0.0245
     19 H           4.2168    6.1224   -0.4063 H       1  UNL1        0.0245
     20 H           4.5261    4.5674   -1.2063 H       1  UNL1        0.0245
     21 H           5.8713    5.6701   -0.8309 H       1  UNL1        0.0245
@<TRIPOS>BOND
     1    20     7    1
     2    21     7    1
     3     7    19    1
     4     7     5    1
     5    18     6    1
     6    17     6    1
     7     6     5    1
     8     6    16    1
     9     5     1    1
    10     5    15    1
    11     1     2    1
    12    12     4    1
    13    13     4    1
    14     2     4    1
    15     2     8    1
    16     2     3    1
    17     4    14    1
    18    11     3    1
    19     9     3    1
    20     3    10    1
