@<TRIPOS>MOLECULE
1
 11 11 0 0 0
SMALL
GASTEIGER

@<TRIPOS>ATOM
      1 N           5.6794    8.7277    5.9967 N.pl3   1  UNL1       -0.2487
      2 C           4.9456    8.5581    7.0943 C.3     1  UNL1        0.0840
      3 C           5.1437    7.5118    7.9835 C.2     1  UNL1       -0.0600
      4 C           6.1443    6.5919    7.7235 C.2     1  UNL1       -0.0626
      5 C           6.9186    6.7707    6.5870 C.2     1  UNL1       -0.0466
      6 C           6.6536    7.8481    5.7596 C.2     1  UNL1        0.0121
      7 H           7.2499    8.0284    4.8738 H       1  UNL1        0.0797
      8 H           7.7176    6.0877    6.3463 H       1  UNL1        0.0630
      9 H           6.3246    5.7630    8.3909 H       1  UNL1        0.0615
     10 H           4.5208    7.4240    8.8592 H       1  UNL1        0.0592
     11 H           4.1591    9.2853    7.2492 H       1  UNL1        0.0584
@<TRIPOS>BOND
     1     7     6    1
     2     6     1    1
     3     6     5    2
     4     1     2    1
     5     8     5    1
     6     5     4    1
     7     2    11    1
     8     2     3    1
     9     4     3    2
    10     4     9    1
    11     3    10    1
