@<TRIPOS>MOLECULE
1
 11 11 0 0 0
SMALL
GASTEIGER

@<TRIPOS>ATOM
      1 N           5.0678    8.7278    3.2801 N.pl3   1  UNL1       -0.2487
      2 C           5.8016    8.5582    2.1825 C.3     1  UNL1        0.0840
      3 C           5.6037    7.5117    1.2934 C.2     1  UNL1       -0.0600
      4 C           4.6031    6.5918    1.5535 C.2     1  UNL1       -0.0626
      5 C           3.8287    6.7707    2.6899 C.2     1  UNL1       -0.0466
      6 C           4.0937    7.8482    3.5173 C.2     1  UNL1        0.0121
      7 H           6.5883    9.2852    2.0277 H       1  UNL1        0.0584
      8 H           6.2265    7.4239    0.4177 H       1  UNL1        0.0592
      9 H           4.4227    5.7630    0.8860 H       1  UNL1        0.0615
     10 H           3.0297    6.0877    2.9306 H       1  UNL1        0.0630
     11 H           3.4975    8.0285    4.4031 H       1  UNL1        0.0797
@<TRIPOS>BOND
     1     8     3    1
     2     9     4    1
     3     3     4    2
     4     3     2    1
     5     4     5    1
     6     7     2    1
     7     2     1    1
     8     5    10    1
     9     5     6    2
    10     1     6    1
    11     6    11    1
