@<TRIPOS>MOLECULE
3
 27 26 0 0 0
SMALL
GASTEIGER

@<TRIPOS>ATOM
      1 SI          6.8839    2.4041    6.8330 Si      1  UNL1        0.0000
      2 SI          4.1643    1.0724    6.3987 Si      1  UNL1        0.0000
      3 N           5.4456    2.1212    5.9300 N.3     1  UNL1        0.0000
      4 C           6.5953    2.9531    8.6411 C.3     1  UNL1        0.0000
      5 C           7.7427    3.8492    5.8848 C.3     1  UNL1        0.0000
      6 C           8.1007    0.9292    6.8605 C.3     1  UNL1        0.0000
      7 C           3.0246    1.8188    7.7480 C.3     1  UNL1        0.0000
      8 C           3.1021    0.8775    4.8021 C.3     1  UNL1        0.0000
      9 C           4.7080   -0.6587    6.9847 C.3     1  UNL1        0.0000
     10 H           6.1402    2.1477    9.2072 H       1  UNL1        0.0000
     11 H           7.5262    3.2140    9.1338 H       1  UNL1        0.0000
     12 H           5.9348    3.8120    8.7024 H       1  UNL1        0.0000
     13 H           7.0127    4.6011    5.5445 H       1  UNL1        0.0000
     14 H           8.2907    3.4724    5.0223 H       1  UNL1        0.0000
     15 H           8.4601    4.3666    6.5158 H       1  UNL1        0.0000
     16 H           8.2560    0.5214    5.8668 H       1  UNL1        0.0000
     17 H           7.7171    0.1303    7.4846 H       1  UNL1        0.0000
     18 H           9.0697    1.2189    7.2541 H       1  UNL1        0.0000
     19 H           2.2012    1.1523    7.9849 H       1  UNL1        0.0000
     20 H           2.5999    2.7702    7.4405 H       1  UNL1        0.0000
     21 H           3.5795    1.9911    8.6636 H       1  UNL1        0.0000
     22 H           3.5202    0.1199    4.1452 H       1  UNL1        0.0000
     23 H           3.0475    1.8262    4.2419 H       1  UNL1        0.0000
     24 H           2.0838    0.5798    5.0335 H       1  UNL1        0.0000
     25 H           5.1948   -0.5918    7.9512 H       1  UNL1        0.0000
     26 H           5.4115   -1.1092    6.2932 H       1  UNL1        0.0000
     27 H           3.8629   -1.3314    7.0863 H       1  UNL1        0.0000
@<TRIPOS>BOND
     1    22     8    1
     2    23     8    1
     3     8    24    1
     4     8     2    1
     5    14     5    1
     6    13     5    1
     7    16     6    1
     8     5    15    1
     9     5     1    1
    10     3     2    1
    11     3     1    1
    12    26     9    1
    13     2     9    1
    14     2     7    1
    15     1     6    1
    16     1     4    1
    17     6    18    1
    18     6    17    1
    19     9    27    1
    20     9    25    1
    21    20     7    1
    22     7    19    1
    23     7    21    1
    24     4    12    1
    25     4    11    1
    26     4    10    1
