@<TRIPOS>MOLECULE
3
 27 26 0 0 0
SMALL
GASTEIGER

@<TRIPOS>ATOM
      1 SI          1.3845    3.7577    0.1317 Si      1  UNL1        0.0000
      2 SI          1.5216    5.7048    2.4233 Si      1  UNL1        0.0000
      3 N           2.2101    4.3907    1.5260 N.3     1  UNL1        0.0000
      4 C          -0.2827    5.4541    3.0332 C.3     1  UNL1        0.0000
      5 C           1.5340    7.3568    1.4398 C.3     1  UNL1        0.0000
      6 C           2.5770    5.9606    4.0020 C.3     1  UNL1        0.0000
      7 C           1.1957    1.8527    0.1625 C.3     1  UNL1        0.0000
      8 C          -0.4069    4.3885   -0.1042 C.3     1  UNL1        0.0000
      9 C           2.2284    4.2539   -1.5293 C.3     1  UNL1        0.0000
     10 H          -0.4160    5.8585    4.0323 H       1  UNL1        0.0000
     11 H          -0.9880    5.9596    2.3837 H       1  UNL1        0.0000
     12 H          -0.5586    4.4059    3.0608 H       1  UNL1        0.0000
     13 H           2.5417    7.7153    1.2542 H       1  UNL1        0.0000
     14 H           1.0480    7.2384    0.4765 H       1  UNL1        0.0000
     15 H           1.0015    8.1342    1.9793 H       1  UNL1        0.0000
     16 H           2.3090    5.2469    4.7781 H       1  UNL1        0.0000
     17 H           3.6406    5.8595    3.7825 H       1  UNL1        0.0000
     18 H           2.4103    6.9518    4.4136 H       1  UNL1        0.0000
     19 H           0.4084    1.5555    0.8464 H       1  UNL1        0.0000
     20 H           0.9242    1.4904   -0.8235 H       1  UNL1        0.0000
     21 H           2.0963    1.3333    0.4694 H       1  UNL1        0.0000
     22 H          -0.4633    5.4707   -0.1207 H       1  UNL1        0.0000
     23 H          -0.8081    4.0259   -1.0453 H       1  UNL1        0.0000
     24 H          -1.0618    4.0361    0.6831 H       1  UNL1        0.0000
     25 H           3.2313    3.8540   -1.6425 H       1  UNL1        0.0000
     26 H           1.6400    3.8768   -2.3603 H       1  UNL1        0.0000
     27 H           2.2879    5.3323   -1.6420 H       1  UNL1        0.0000
@<TRIPOS>BOND
     1    26     9    1
     2    25     9    1
     3    27     9    1
     4     9     1    1
     5    23     8    1
     6    20     7    1
     7    22     8    1
     8     8     1    1
     9     8    24    1
    10     1     7    1
    11     1     3    1
    12     7    21    1
    13     7    19    1
    14    14     5    1
    15    13     5    1
    16     5    15    1
    17     5     2    1
    18     3     2    1
    19    11     4    1
    20     2     4    1
    21     2     6    1
    22     4    12    1
    23     4    10    1
    24    17     6    1
    25     6    18    1
    26     6    16    1
