@<TRIPOS>MOLECULE
3
 27 26 0 0 0
SMALL
GASTEIGER

@<TRIPOS>ATOM
      1 SI          6.4303    4.6246    4.1257 Si      1  UNL1        0.0000
      2 SI          5.8446    6.2519    1.6493 Si      1  UNL1        0.0000
      3 N           5.4723    4.9270    2.7038 N.3     1  UNL1        0.0000
      4 C           5.4371    4.5092    5.7746 C.3     1  UNL1        0.0000
      5 C           7.7169    5.9862    4.5186 C.3     1  UNL1        0.0000
      6 C           7.4243    2.9954    3.9796 C.3     1  UNL1        0.0000
      7 C           5.4268    7.9666    2.4102 C.3     1  UNL1        0.0000
      8 C           7.6731    6.3468    1.0637 C.3     1  UNL1        0.0000
      9 C           4.7652    6.0652    0.0748 C.3     1  UNL1        0.0000
     10 H           4.6018    5.1999    5.8219 H       1  UNL1        0.0000
     11 H           5.0618    3.5088    5.9628 H       1  UNL1        0.0000
     12 H           6.0992    4.7552    6.5994 H       1  UNL1        0.0000
     13 H           8.3375    5.6799    5.3543 H       1  UNL1        0.0000
     14 H           8.3727    6.1827    3.6814 H       1  UNL1        0.0000
     15 H           7.2429    6.9213    4.7947 H       1  UNL1        0.0000
     16 H           6.7893    2.1470    3.7422 H       1  UNL1        0.0000
     17 H           8.1784    3.0587    3.2025 H       1  UNL1        0.0000
     18 H           7.9330    2.7776    4.9132 H       1  UNL1        0.0000
     19 H           6.0510    8.1718    3.2729 H       1  UNL1        0.0000
     20 H           5.5995    8.7613    1.6903 H       1  UNL1        0.0000
     21 H           4.3923    8.0319    2.7330 H       1  UNL1        0.0000
     22 H           8.2166    5.4415    1.3107 H       1  UNL1        0.0000
     23 H           7.7411    6.4915   -0.0100 H       1  UNL1        0.0000
     24 H           8.1879    7.1794    1.5303 H       1  UNL1        0.0000
     25 H           3.7763    5.6767    0.3226 H       1  UNL1        0.0000
     26 H           4.6352    7.0267   -0.4136 H       1  UNL1        0.0000
     27 H           5.2256    5.4035   -0.6551 H       1  UNL1        0.0000
@<TRIPOS>BOND
     1    27     9    1
     2    26     9    1
     3    23     8    1
     4     9    25    1
     5     9     2    1
     6     8    22    1
     7     8    24    1
     8     8     2    1
     9     2     7    1
    10     2     3    1
    11    20     7    1
    12     7    21    1
    13     7    19    1
    14     3     1    1
    15    17     6    1
    16    14     5    1
    17    16     6    1
    18     6     1    1
    19     6    18    1
    20     1     5    1
    21     1     4    1
    22     5    15    1
    23     5    13    1
    24     4    10    1
    25     4    11    1
    26     4    12    1
