@<TRIPOS>MOLECULE
1
 10 9 0 0 0
SMALL
GASTEIGER

@<TRIPOS>ATOM
      1 N          -0.3549   12.2288    9.5405 N.3     1  UNL1       -0.3220
      2 C          -1.0151   11.5593   10.6716 C.3     1  UNL1       -0.0161
      3 C           1.0473   12.5056    9.8724 C.3     1  UNL1       -0.0161
      4 H          -0.8400   13.1250    9.4043 H       1  UNL1        0.1213
      5 H          -0.9043   12.1388   11.5987 H       1  UNL1        0.0388
      6 H          -0.5562   10.5775   10.8219 H       1  UNL1        0.0388
      7 H          -2.0821   11.4448   10.4588 H       1  UNL1        0.0388
      8 H           1.1389   13.0115   10.8429 H       1  UNL1        0.0388
      9 H           1.4976   13.1409    9.1093 H       1  UNL1        0.0388
     10 H           1.5912   11.5590    9.9216 H       1  UNL1        0.0388
@<TRIPOS>BOND
     1     9     3    1
     2     4     1    1
     3     1     3    1
     4     1     2    1
     5     3    10    1
     6     3     8    1
     7     7     2    1
     8     2     6    1
     9     2     5    1
