@<TRIPOS>MOLECULE
1
 9 8 0 0 0
SMALL
GASTEIGER

@<TRIPOS>ATOM
      1 N           2.0680    0.8794    1.9029 N.3     1  UNL1       -0.2469
      2 C           2.7005   -0.3824    1.6030 C.3     1  UNL1        0.0021
      3 C           2.7327    1.9514    1.2053 C.3     1  UNL1        0.0021
      4 H           2.6133   -0.6240    0.5291 H       1  UNL1        0.0405
      5 H           2.2361   -1.1904    2.1775 H       1  UNL1        0.0405
      6 H           3.7816   -0.3563    1.8378 H       1  UNL1        0.0405
      7 H           2.6355    1.8345    0.1121 H       1  UNL1        0.0405
      8 H           3.8155    1.9678    1.4327 H       1  UNL1        0.0405
      9 H           2.2965    2.9063    1.5048 H       1  UNL1        0.0405
@<TRIPOS>BOND
     1     7     3    1
     2     4     2    1
     3     3     8    1
     4     3     9    1
     5     3     1    1
     6     2     6    1
     7     2     1    1
     8     2     5    1
