@<TRIPOS>MOLECULE
1
 9 8 0 0 0
SMALL
GASTEIGER

@<TRIPOS>ATOM
      1 N          -3.9857    4.8118   14.8070 N.3     1  UNL1       -0.2469
      2 C          -3.7272    6.1748   14.3844 C.3     1  UNL1        0.0021
      3 C          -5.3604    4.4814   14.4927 C.3     1  UNL1        0.0021
      4 H          -3.8974    6.2973   13.2967 H       1  UNL1        0.0405
      5 H          -2.6941    6.4583   14.6066 H       1  UNL1        0.0405
      6 H          -4.4041    6.8928   14.8901 H       1  UNL1        0.0405
      7 H          -5.5656    4.5981   13.4097 H       1  UNL1        0.0405
      8 H          -6.0734    5.1509   15.0144 H       1  UNL1        0.0405
      9 H          -5.5872    3.4494   14.7707 H       1  UNL1        0.0405
@<TRIPOS>BOND
     1     4     2    1
     2     7     3    1
     3     2     5    1
     4     2     1    1
     5     2     6    1
     6     3     9    1
     7     3     1    1
     8     3     8    1
