@<TRIPOS>MOLECULE
1
 9 8 0 0 0
SMALL
GASTEIGER

@<TRIPOS>ATOM
      1 N          -0.3555    0.0314    3.1753 N.3     1  UNL1       -0.2469
      2 C          -1.3057   -0.2595    4.2248 C.3     1  UNL1        0.0021
      3 C          -0.5900   -0.8599    2.0614 C.3     1  UNL1        0.0021
      4 H          -2.3388   -0.2419    3.8346 H       1  UNL1        0.0405
      5 H          -1.2348    0.4762    5.0296 H       1  UNL1        0.0405
      6 H          -1.1441   -1.2688    4.6488 H       1  UNL1        0.0405
      7 H          -1.6412   -0.8037    1.7279 H       1  UNL1        0.0405
      8 H          -0.4001   -1.9127    2.3430 H       1  UNL1        0.0405
      9 H           0.0515   -0.5986    1.2179 H       1  UNL1        0.0405
@<TRIPOS>BOND
     1     9     3    1
     2     7     3    1
     3     3     8    1
     4     3     1    1
     5     1     2    1
     6     4     2    1
     7     2     6    1
     8     2     5    1
