@<TRIPOS>MOLECULE
1
 9 8 0 0 0
SMALL
GASTEIGER

@<TRIPOS>ATOM
      1 N          -1.2782    5.1374   16.3572 N.3     1  UNL1       -0.2469
      2 C           0.1333    4.8172   16.3894 C.3     1  UNL1        0.0021
      3 C          -1.5631    6.2856   17.1872 C.3     1  UNL1        0.0021
      4 H           0.7339    5.5924   15.8755 H       1  UNL1        0.0405
      5 H           0.2973    3.8545   15.8915 H       1  UNL1        0.0405
      6 H           0.5218    4.7540   17.4245 H       1  UNL1        0.0405
      7 H          -1.0606    7.1956   16.8055 H       1  UNL1        0.0405
      8 H          -1.2071    6.1484   18.2290 H       1  UNL1        0.0405
      9 H          -2.6433    6.4775   17.2071 H       1  UNL1        0.0405
@<TRIPOS>BOND
     1     4     2    1
     2     5     2    1
     3     1     2    1
     4     1     3    1
     5     2     6    1
     6     7     3    1
     7     3     9    1
     8     3     8    1
