@<TRIPOS>MOLECULE
1,3
 44 43 0 0 0
SMALL
GASTEIGER

@<TRIPOS>ATOM
      1 C           3.4301    7.7784   10.5844 C.3     1  UNL1        0.0000
      2 O           3.8088    6.7174   10.8801 O.3     1  UNL1        0.0000
      3 SI          5.1400    9.9450    9.5991 Si      1  UNL1        0.0000
      4 C           6.7644   10.5931   10.4635 C.3     1  UNL1        0.0000
      5 SI          6.3649   10.9795   12.3289 Si      1  UNL1        0.0000
      6 SI          8.1274    9.2297   10.3214 Si      1  UNL1        0.0000
      7 SI          7.2317   12.1975    9.4934 Si      1  UNL1        0.0000
      8 C           5.2120   12.4921   12.4263 C.3     1  UNL1        0.0000
      9 H           4.2796   12.2852   11.9119 H       1  UNL1        0.0000
     10 H           5.6499   13.3840   11.9917 H       1  UNL1        0.0000
     11 H           4.9657   12.7192   13.4575 H       1  UNL1        0.0000
     12 C           7.9303   11.3858   13.3617 C.3     1  UNL1        0.0000
     13 H           8.5588   10.5104   13.4865 H       1  UNL1        0.0000
     14 H           7.6380   11.7159   14.3542 H       1  UNL1        0.0000
     15 H           8.5365   12.1696   12.9254 H       1  UNL1        0.0000
     16 C           5.5614    9.5205   13.2525 C.3     1  UNL1        0.0000
     17 H           4.9526    8.9083   12.5959 H       1  UNL1        0.0000
     18 H           4.9065    9.8958   14.0311 H       1  UNL1        0.0000
     19 H           6.2926    8.8801   13.7322 H       1  UNL1        0.0000
     20 C           7.8489    7.7918   11.5396 C.3     1  UNL1        0.0000
     21 H           8.4681    6.9388   11.2776 H       1  UNL1        0.0000
     22 H           6.8159    7.4629   11.5257 H       1  UNL1        0.0000
     23 H           8.0940    8.0702   12.5573 H       1  UNL1        0.0000
     24 C           9.8844    9.9291   10.6369 C.3     1  UNL1        0.0000
     25 H          10.1956   10.6131    9.8551 H       1  UNL1        0.0000
     26 H          10.6138    9.1251   10.6768 H       1  UNL1        0.0000
     27 H           9.9360   10.4624   11.5779 H       1  UNL1        0.0000
     28 C           8.2180    8.3608    8.6164 C.3     1  UNL1        0.0000
     29 H           8.2696    9.0565    7.7886 H       1  UNL1        0.0000
     30 H           7.3487    7.7301    8.4660 H       1  UNL1        0.0000
     31 H           9.0965    7.7236    8.5610 H       1  UNL1        0.0000
     32 C           8.1110   11.8710    7.8210 C.3     1  UNL1        0.0000
     33 H           7.5035   11.2455    7.1766 H       1  UNL1        0.0000
     34 H           9.0717   11.3849    7.9450 H       1  UNL1        0.0000
     35 H           8.2834   12.8055    7.2938 H       1  UNL1        0.0000
     36 C           8.3942   13.3950   10.4259 C.3     1  UNL1        0.0000
     37 H           8.6662   14.2336    9.7912 H       1  UNL1        0.0000
     38 H           9.3123   12.9067   10.7310 H       1  UNL1        0.0000
     39 H           7.9203   13.7965   11.3133 H       1  UNL1        0.0000
     40 C           5.6619   13.1737    9.0007 C.3     1  UNL1        0.0000
     41 H           5.3069   12.8515    8.0268 H       1  UNL1        0.0000
     42 H           5.8552   14.2404    8.9360 H       1  UNL1        0.0000
     43 H           4.8525   13.0268    9.7047 H       1  UNL1        0.0000
     44 H           5.7681    9.7362    8.2363 H       1  UNL1        0.0000
@<TRIPOS>BOND
     1    33    32    1
     2    35    32    1
     3    29    28    1
     4    32    34    1
     5    32     7    1
     6    41    40    1
     7    44     3    1
     8    30    28    1
     9    31    28    1
    10    28     6    1
    11    42    40    1
    12    40     7    1
    13    40    43    1
    14     7    36    1
    15     7     4    1
    16     3     4    1
    17    37    36    1
    18    25    24    1
    19     6     4    1
    20     6    24    1
    21     6    20    1
    22    36    38    1
    23    36    39    1
    24     4     5    1
    25     1     2    1
    26    24    26    1
    27    24    27    1
    28    21    20    1
    29    22    20    1
    30    20    23    1
    31     9     8    1
    32    10     8    1
    33     5     8    1
    34     5    16    1
    35     5    12    1
    36     8    11    1
    37    17    16    1
    38    15    12    1
    39    16    19    1
    40    16    18    1
    41    12    13    1
    42    12    14    1
    43     3     1    0
