@<TRIPOS>MOLECULE
1,3
 38 39 0 0 0
SMALL
GASTEIGER

@<TRIPOS>ATOM
      1 SI          8.3654   10.2855    2.3131 Si      1  UNL1        0.0000
      2 SI         10.6067   13.4373    5.1430 Si      1  UNL1        0.0000
      3 C           9.1454   12.6482    2.5696 C.1     1  UNL1        0.0000
      4 C           9.7793   12.9648    3.5589 C.1     1  UNL1        0.0000
      5 C           9.3195   14.2568    6.2829 C.3     1  UNL1        0.0000
      6 H           8.5060   13.5679    6.4905 H       1  UNL1        0.0000
      7 H           8.8904   15.1387    5.8179 H       1  UNL1        0.0000
      8 H           9.7519   14.5587    7.2328 H       1  UNL1        0.0000
      9 C          12.0609   14.6268    4.7934 C.3     1  UNL1        0.0000
     10 H          11.7150   15.5356    4.3097 H       1  UNL1        0.0000
     11 H          12.8000   14.1693    4.1415 H       1  UNL1        0.0000
     12 H          12.5677   14.9152    5.7100 H       1  UNL1        0.0000
     13 C          11.2656   11.8500    5.9798 C.3     1  UNL1        0.0000
     14 H          11.6087   12.0503    6.9908 H       1  UNL1        0.0000
     15 H          12.1003   11.4211    5.4329 H       1  UNL1        0.0000
     16 H          10.4861   11.0953    6.0400 H       1  UNL1        0.0000
     17 C           9.7840    9.0010    2.3884 C.ar    1  UNL1        0.0000
     18 C          11.0023    9.3513    2.9711 C.ar    1  UNL1        0.0000
     19 H          11.1058   10.3319    3.4113 H       1  UNL1        0.0000
     20 C          12.0622    8.4633    2.9903 C.ar    1  UNL1        0.0000
     21 H          12.9981    8.7506    3.4477 H       1  UNL1        0.0000
     22 C          11.9262    7.2058    2.4242 C.ar    1  UNL1        0.0000
     23 H          12.7536    6.5116    2.4388 H       1  UNL1        0.0000
     24 C          10.7244    6.8422    1.8396 C.ar    1  UNL1        0.0000
     25 H          10.6134    5.8628    1.3968 H       1  UNL1        0.0000
     26 C           9.6669    7.7343    1.8195 C.ar    1  UNL1        0.0000
     27 H           8.7321    7.4452    1.3598 H       1  UNL1        0.0000
     28 C           7.6296   10.1904    4.0833 C.ar    1  UNL1        0.0000
     29 C           6.7953   11.2250    4.5088 C.ar    1  UNL1        0.0000
     30 H           6.5568   12.0258    3.8211 H       1  UNL1        0.0000
     31 C           6.2914   11.2452    5.7955 C.ar    1  UNL1        0.0000
     32 H           5.6530   12.0572    6.1114 H       1  UNL1        0.0000
     33 C           6.6054   10.2264    6.6813 C.ar    1  UNL1        0.0000
     34 H           6.2140   10.2428    7.6881 H       1  UNL1        0.0000
     35 C           7.4228    9.1866    6.2717 C.ar    1  UNL1        0.0000
     36 H           7.6685    8.3895    6.9588 H       1  UNL1        0.0000
     37 C           7.9299    9.1692    4.9844 C.ar    1  UNL1        0.0000
     38 H           8.5713    8.3553    4.6763 H       1  UNL1        0.0000
@<TRIPOS>BOND
     1    27    26    1
     2    25    24    1
     3    26    24   ar
     4    26    17   ar
     5    24    22   ar
     6     1    17    1
     7     1    28    1
     8    17    18   ar
     9    22    23    1
    10    22    20   ar
    11     3     4    3
    12    18    20   ar
    13    18    19    1
    14    20    21    1
    15     4     2    1
    16    30    29    1
    17    28    29   ar
    18    28    37   ar
    19    11     9    1
    20    10     9    1
    21    29    31   ar
    22    38    37    1
    23     9     2    1
    24     9    12    1
    25    37    35   ar
    26     2    13    1
    27     2     5    1
    28    15    13    1
    29    31    32    1
    30    31    33   ar
    31     7     5    1
    32    13    16    1
    33    13    14    1
    34    35    33   ar
    35    35    36    1
    36     5     6    1
    37     5     8    1
    38    33    34    1
    39     1     3    0
