@<TRIPOS>MOLECULE
1,7
 44 43 0 0 0
SMALL
GASTEIGER

@<TRIPOS>ATOM
      1 SI          8.2959   11.3446    7.2989 Si      1  UNL1        0.0000
      2 H           7.9040   10.9285    5.8969 H       1  UNL1        0.0000
      3 SI          7.0580   13.7774    5.7824 Si      1  UNL1        0.0000
      4 SI          8.3408   14.2314    8.6911 Si      1  UNL1        0.0000
      5 SI         10.2474   13.4546    6.2359 Si      1  UNL1        0.0000
      6 O           5.5561   10.9865    9.4518 O.3     1  UNL1        0.0000
      7 C           6.6056   10.4993    9.2674 C.3     1  UNL1        0.0000
      8 C           8.4764   13.2402    7.0090 C.3     1  UNL1        0.0000
      9 C           5.4360   12.8818    6.2577 C.3     1  UNL1        0.0000
     10 H           5.4051   12.6123    7.3065 H       1  UNL1        0.0000
     11 H           5.3160   11.9663    5.6873 H       1  UNL1        0.0000
     12 H           4.5674   13.5008    6.0558 H       1  UNL1        0.0000
     13 C           6.7397   15.6585    5.7284 C.3     1  UNL1        0.0000
     14 H           7.6290   16.2108    5.4474 H       1  UNL1        0.0000
     15 H           6.3978   16.0401    6.6829 H       1  UNL1        0.0000
     16 H           5.9728   15.8850    4.9934 H       1  UNL1        0.0000
     17 C           7.3950   13.2795    3.9639 C.3     1  UNL1        0.0000
     18 H           6.5548   13.5686    3.3395 H       1  UNL1        0.0000
     19 H           7.5194   12.2079    3.8551 H       1  UNL1        0.0000
     20 H           8.2791   13.7569    3.5582 H       1  UNL1        0.0000
     21 C           8.9563   16.0346    8.5046 C.3     1  UNL1        0.0000
     22 H           8.7549   16.5860    9.4182 H       1  UNL1        0.0000
     23 H           8.4757   16.5672    7.6942 H       1  UNL1        0.0000
     24 H          10.0272   16.0724    8.3378 H       1  UNL1        0.0000
     25 C           6.5317   14.2973    9.2902 C.3     1  UNL1        0.0000
     26 H           6.1786   13.3095    9.5652 H       1  UNL1        0.0000
     27 H           5.8480   14.7005    8.5526 H       1  UNL1        0.0000
     28 H           6.4562   14.9182   10.1779 H       1  UNL1        0.0000
     29 C           9.3463   13.5065   10.1373 C.3     1  UNL1        0.0000
     30 H          10.3504   13.9117   10.1879 H       1  UNL1        0.0000
     31 H           9.4212   12.4245   10.0809 H       1  UNL1        0.0000
     32 H           8.8574   13.7437   11.0772 H       1  UNL1        0.0000
     33 C          10.4744   15.1181    5.3250 C.3     1  UNL1        0.0000
     34 H          10.2515   15.9623    5.9658 H       1  UNL1        0.0000
     35 H           9.8391   15.1929    4.4498 H       1  UNL1        0.0000
     36 H          11.5024   15.2248    4.9914 H       1  UNL1        0.0000
     37 C          11.5917   13.2869    7.5737 C.3     1  UNL1        0.0000
     38 H          12.5667   13.1348    7.1212 H       1  UNL1        0.0000
     39 H          11.3917   12.4395    8.2206 H       1  UNL1        0.0000
     40 H          11.6597   14.1699    8.1974 H       1  UNL1        0.0000
     41 C          10.6380   12.0534    4.9962 C.3     1  UNL1        0.0000
     42 H          11.5725   12.2478    4.4787 H       1  UNL1        0.0000
     43 H           9.8706   11.9319    4.2429 H       1  UNL1        0.0000
     44 H          10.7440   11.1062    5.5148 H       1  UNL1        0.0000
@<TRIPOS>BOND
     1    18    17    1
     2    20    17    1
     3    19    17    1
     4    17     3    1
     5    43    41    1
     6    35    33    1
     7    42    41    1
     8    36    33    1
     9    16    13    1
    10    41    44    1
    11    41     5    1
    12    33    34    1
    13    33     5    1
    14    14    13    1
    15    11     9    1
    16    13     3    1
    17    13    15    1
    18     3     9    1
    19     3     8    1
    20     2     1    1
    21    12     9    1
    22     5     8    1
    23     5    37    1
    24     9    10    1
    25     8     1    1
    26     8     4    1
    27    38    37    1
    28    37    40    1
    29    37    39    1
    30    23    21    1
    31    24    21    1
    32    21     4    1
    33    21    22    1
    34    27    25    1
    35     4    25    1
    36     4    29    1
    37     7     6    1
    38    25    26    1
    39    25    28    1
    40    31    29    1
    41    29    30    1
    42    29    32    1
    43     1     7    0
