@<TRIPOS>MOLECULE
1,3
 9 9 0 0 0
SMALL
GASTEIGER

@<TRIPOS>ATOM
      1 C           5.1634    2.1284    1.0052 C.3     1  UNL1        0.0000
      2 O           6.2952    2.1557    0.8523 O.3     1  UNL1        0.0000
      3 SI          3.4896    3.7368    2.6475 Si      1  UNL1        0.0000
      4 CL          4.1018    3.0774    4.4881 Cl      1  UNL1        0.0000
      5 CL          4.8060    5.2565    2.1942 Cl      1  UNL1        0.0000
      6 SI          1.3973    4.8012    2.8884 Si      1  UNL1        0.0000
      7 CL          0.1383    3.7096    4.0462 Cl      1  UNL1        0.0000
      8 CL          0.5978    4.7894    1.0166 Cl      1  UNL1        0.0000
      9 CL          1.3357    6.6976    3.5695 Cl      1  UNL1        0.0000
@<TRIPOS>BOND
     1     2     1    1
     2     8     6    1
     3     5     3    1
     4     3     6    1
     5     3     4    1
     6     6     9    1
     7     6     7    1
     8     3     1    0
     9     6     5    0
