@<TRIPOS>MOLECULE
1,3
 40 41 0 0 0
SMALL
GASTEIGER

@<TRIPOS>ATOM
      1 C           1.6691    6.2793    3.4435 C.3     1  UNL1        0.0000
      2 O           0.6045    6.7135    3.3738 O.3     1  UNL1        0.0000
      3 SI          2.6672    4.0348    2.1235 Si      1  UNL1        0.0000
      4 C           3.9822    2.6643    2.3571 C.ar    1  UNL1        0.0000
      5 C           4.6258    2.0802    1.2724 C.ar    1  UNL1        0.0000
      6 C           5.5477    1.0630    1.4437 C.ar    1  UNL1        0.0000
      7 C           5.8420    0.6022    2.7158 C.ar    1  UNL1        0.0000
      8 C           5.2008    1.1611    3.8095 C.ar    1  UNL1        0.0000
      9 C           4.2825    2.1776    3.6252 C.ar    1  UNL1        0.0000
     10 SI          0.6490    2.7491    2.1803 Si      1  UNL1        0.0000
     11 C           0.8176    1.2602    0.9854 C.3     1  UNL1        0.0000
     12 C           0.2086    2.0146    3.8908 C.3     1  UNL1        0.0000
     13 C          -0.8260    3.8255    1.6127 C.3     1  UNL1        0.0000
     14 SI          2.9497    5.1012   -0.0027 Si      1  UNL1        0.0000
     15 C           2.1044    4.0859   -1.3885 C.3     1  UNL1        0.0000
     16 C           2.0461    6.7805    0.0978 C.3     1  UNL1        0.0000
     17 C           4.7301    5.4396   -0.6367 C.3     1  UNL1        0.0000
     18 H           4.3950    2.4281    0.2759 H       1  UNL1        0.0000
     19 H           6.0388    0.6265    0.5852 H       1  UNL1        0.0000
     20 H           6.5637   -0.1898    2.8542 H       1  UNL1        0.0000
     21 H           5.4197    0.8008    4.8050 H       1  UNL1        0.0000
     22 H           3.7832    2.6129    4.4802 H       1  UNL1        0.0000
     23 H           1.6780    0.6544    1.2530 H       1  UNL1        0.0000
     24 H           0.9557    1.5858   -0.0397 H       1  UNL1        0.0000
     25 H          -0.0574    0.6169    1.0095 H       1  UNL1        0.0000
     26 H           1.0394    1.4428    4.2930 H       1  UNL1        0.0000
     27 H          -0.6496    1.3497    3.8357 H       1  UNL1        0.0000
     28 H          -0.0297    2.7942    4.6069 H       1  UNL1        0.0000
     29 H          -0.6923    4.1817    0.5963 H       1  UNL1        0.0000
     30 H          -0.9354    4.6967    2.2504 H       1  UNL1        0.0000
     31 H          -1.7633    3.2781    1.6457 H       1  UNL1        0.0000
     32 H           1.0568    3.9153   -1.1639 H       1  UNL1        0.0000
     33 H           2.5719    3.1145   -1.5166 H       1  UNL1        0.0000
     34 H           2.1526    4.5974   -2.3461 H       1  UNL1        0.0000
     35 H           0.9794    6.6318    0.2299 H       1  UNL1        0.0000
     36 H           2.1836    7.3819   -0.7960 H       1  UNL1        0.0000
     37 H           2.3932    7.3634    0.9458 H       1  UNL1        0.0000
     38 H           5.2233    6.2209   -0.0680 H       1  UNL1        0.0000
     39 H           4.7215    5.7548   -1.6775 H       1  UNL1        0.0000
     40 H           5.3516    4.5514   -0.5751 H       1  UNL1        0.0000
@<TRIPOS>BOND
     1    34    15    1
     2    39    17    1
     3    33    15    1
     4    15    32    1
     5    15    14    1
     6    36    16    1
     7    17    40    1
     8    17    38    1
     9    17    14    1
    10    24    11    1
    11    14    16    1
    12    14     3    1
    13    16    35    1
    14    16    37    1
    15    18     5    1
    16    19     6    1
    17    29    13    1
    18    11    25    1
    19    11    23    1
    20    11    10    1
    21     5     6   ar
    22     5     4   ar
    23     6     7   ar
    24    13    31    1
    25    13    10    1
    26    13    30    1
    27     3    10    1
    28     3     4    1
    29    10    12    1
    30     4     9   ar
    31     7    20    1
    32     7     8   ar
    33     2     1    1
    34     9     8   ar
    35     9    22    1
    36     8    21    1
    37    27    12    1
    38    12    26    1
    39    12    28    1
    40     3     1    0
    41     3     9    0
