@<TRIPOS>MOLECULE
1,3
 44 43 0 0 0
SMALL
GASTEIGER

@<TRIPOS>ATOM
      1 C           3.7338    9.5332   -0.2158 C.3     1  UNL1        0.0000
      2 O           4.2020    8.6788   -0.8692 O.3     1  UNL1        0.0000
      3 SI          3.7756   12.6248   -0.4300 Si      1  UNL1        0.0000
      4 H           4.7380   13.6757    0.0980 H       1  UNL1        0.0000
      5 C           3.6448   13.4586   -2.2267 C.3     1  UNL1        0.0000
      6 SI          3.2650   15.3165   -1.9178 Si      1  UNL1        0.0000
      7 SI          2.2274   12.6039   -3.2273 Si      1  UNL1        0.0000
      8 SI          5.3476   13.1745   -3.0686 Si      1  UNL1        0.0000
      9 C           2.0485   15.5225   -0.4535 C.3     1  UNL1        0.0000
     10 H           1.4567   16.4303   -0.5355 H       1  UNL1        0.0000
     11 H           2.5889   15.5668    0.4860 H       1  UNL1        0.0000
     12 H           1.3661   14.6843   -0.3875 H       1  UNL1        0.0000
     13 C           2.5250   16.2644   -3.4101 C.3     1  UNL1        0.0000
     14 H           2.3775   17.3138   -3.1696 H       1  UNL1        0.0000
     15 H           1.5648   15.8560   -3.7012 H       1  UNL1        0.0000
     16 H           3.1804   16.2167   -4.2724 H       1  UNL1        0.0000
     17 C           4.7805   16.3865   -1.4231 C.3     1  UNL1        0.0000
     18 H           5.5267   16.4298   -2.2087 H       1  UNL1        0.0000
     19 H           5.2594   15.9917   -0.5345 H       1  UNL1        0.0000
     20 H           4.4774   17.4066   -1.2014 H       1  UNL1        0.0000
     21 C           0.5103   13.1073   -2.5608 C.3     1  UNL1        0.0000
     22 H          -0.2779   12.6839   -3.1766 H       1  UNL1        0.0000
     23 H           0.3600   14.1805   -2.5258 H       1  UNL1        0.0000
     24 H           0.3824   12.7124   -1.5597 H       1  UNL1        0.0000
     25 C           2.2566   10.7025   -3.2362 C.3     1  UNL1        0.0000
     26 H           2.6060   10.3208   -2.2828 H       1  UNL1        0.0000
     27 H           2.8854   10.2930   -4.0187 H       1  UNL1        0.0000
     28 H           1.2538   10.3141   -3.3846 H       1  UNL1        0.0000
     29 C           2.2451   13.0932   -5.0883 C.3     1  UNL1        0.0000
     30 H           1.3566   12.7160   -5.5869 H       1  UNL1        0.0000
     31 H           3.1043   12.6653   -5.5937 H       1  UNL1        0.0000
     32 H           2.2732   14.1651   -5.2396 H       1  UNL1        0.0000
     33 C           6.8544   13.4548   -1.9201 C.3     1  UNL1        0.0000
     34 H           6.8704   12.7056   -1.1364 H       1  UNL1        0.0000
     35 H           6.8397   14.4278   -1.4452 H       1  UNL1        0.0000
     36 H           7.7873   13.3746   -2.4725 H       1  UNL1        0.0000
     37 C           5.6471   14.3236   -4.5787 C.3     1  UNL1        0.0000
     38 H           6.5787   14.0721   -5.0783 H       1  UNL1        0.0000
     39 H           5.7038   15.3663   -4.2857 H       1  UNL1        0.0000
     40 H           4.8507   14.2324   -5.3071 H       1  UNL1        0.0000
     41 C           5.5629   11.3791   -3.6703 C.3     1  UNL1        0.0000
     42 H           6.6033   11.1614   -3.8946 H       1  UNL1        0.0000
     43 H           4.9882   11.1838   -4.5681 H       1  UNL1        0.0000
     44 H           5.2359   10.6799   -2.9090 H       1  UNL1        0.0000
@<TRIPOS>BOND
     1    31    29    1
     2    30    29    1
     3    40    37    1
     4    32    29    1
     5    29     7    1
     6    38    37    1
     7    37    39    1
     8    37     8    1
     9    43    41    1
    10    16    13    1
    11    27    25    1
    12    42    41    1
    13    15    13    1
    14    41     8    1
    15    41    44    1
    16    13    14    1
    17    13     6    1
    18    28    25    1
    19    25     7    1
    20    25    26    1
    21     7    21    1
    22     7     5    1
    23    22    21    1
    24     8     5    1
    25     8    33    1
    26    21    23    1
    27    21    24    1
    28    36    33    1
    29     5     6    1
    30     5     3    1
    31    18    17    1
    32    33    35    1
    33    33    34    1
    34     6    17    1
    35     6     9    1
    36    17    20    1
    37    17    19    1
    38     2     1    1
    39    10     9    1
    40     9    12    1
    41     9    11    1
    42     3     4    1
    43     3     1    0
