@<TRIPOS>MOLECULE
1,2
 38 39 0 0 0
SMALL
GASTEIGER

@<TRIPOS>ATOM
      1 SI          5.0516    0.6966    5.3170 Si      1  UNL1        0.0000
      2 C           5.9927    2.5336    3.9504 C.1     1  UNL1        0.0000
      3 C           6.3049    2.3525    2.7959 C.1     1  UNL1        0.0000
      4 C           6.6220    2.1904    1.3766 C.3     1  UNL1        0.0000
      5 C           8.0514    2.6728    1.1025 C.3     1  UNL1        0.0000
      6 H           8.7691    2.1017    1.6898 H       1  UNL1        0.0000
      7 H           8.1527    3.7249    1.3623 H       1  UNL1        0.0000
      8 H           8.2950    2.5520    0.0486 H       1  UNL1        0.0000
      9 C           5.6201    3.0202    0.5650 C.3     1  UNL1        0.0000
     10 H           5.6788    4.0687    0.8485 H       1  UNL1        0.0000
     11 H           4.6075    2.6717    0.7565 H       1  UNL1        0.0000
     12 H           5.8283    2.9319   -0.4998 H       1  UNL1        0.0000
     13 C           6.4841    0.7085    1.0038 C.3     1  UNL1        0.0000
     14 H           7.2200    0.1061    1.5328 H       1  UNL1        0.0000
     15 H           6.6368    0.5759   -0.0657 H       1  UNL1        0.0000
     16 H           5.4922    0.3445    1.2648 H       1  UNL1        0.0000
     17 C           6.2309   -0.8017    5.5087 C.ar    1  UNL1        0.0000
     18 C           7.3184   -0.9604    4.6507 C.ar    1  UNL1        0.0000
     19 H           7.4555   -0.2489    3.8502 H       1  UNL1        0.0000
     20 C           8.2105   -2.0042    4.8141 C.ar    1  UNL1        0.0000
     21 H           9.0467   -2.1117    4.1378 H       1  UNL1        0.0000
     22 C           8.0344   -2.9124    5.8456 C.ar    1  UNL1        0.0000
     23 H           8.7308   -3.7277    5.9756 H       1  UNL1        0.0000
     24 C           6.9617   -2.7695    6.7099 C.ar    1  UNL1        0.0000
     25 H           6.8201   -3.4745    7.5164 H       1  UNL1        0.0000
     26 C           6.0731   -1.7222    6.5432 C.ar    1  UNL1        0.0000
     27 H           5.2394   -1.6146    7.2229 H       1  UNL1        0.0000
     28 C           3.8295    0.0955    3.9633 C.ar    1  UNL1        0.0000
     29 C           3.7388   -1.2316    3.5448 C.ar    1  UNL1        0.0000
     30 H           4.3575   -1.9837    4.0141 H       1  UNL1        0.0000
     31 C           2.8724   -1.5989    2.5300 C.ar    1  UNL1        0.0000
     32 H           2.8179   -2.6311    2.2149 H       1  UNL1        0.0000
     33 C           2.0802   -0.6444    1.9149 C.ar    1  UNL1        0.0000
     34 H           1.4077   -0.9297    1.1190 H       1  UNL1        0.0000
     35 C           2.1536    0.6784    2.3234 C.ar    1  UNL1        0.0000
     36 H           1.5361    1.4252    1.8460 H       1  UNL1        0.0000
     37 C           3.0160    1.0431    3.3399 C.ar    1  UNL1        0.0000
     38 H           3.0791    2.0770    3.6540 H       1  UNL1        0.0000
@<TRIPOS>BOND
     1    12     9    1
     2    15    13    1
     3     8     5    1
     4     9    11    1
     5     9    10    1
     6     9     4    1
     7    13    16    1
     8    13     4    1
     9    13    14    1
    10     5     7    1
    11     5     4    1
    12     5     6    1
    13    34    33    1
    14     4     3    1
    15    36    35    1
    16    33    35   ar
    17    33    31   ar
    18    32    31    1
    19    35    37   ar
    20    31    29   ar
    21     3     2    3
    22    37    38    1
    23    37    28   ar
    24    29    28   ar
    25    29    30    1
    26    19    18    1
    27    28     1    1
    28    21    20    1
    29    18    20   ar
    30    18    17   ar
    31    20    22   ar
    32     1    17    1
    33    17    26   ar
    34    22    23    1
    35    22    24   ar
    36    26    24   ar
    37    26    27    1
    38    24    25    1
    39     1     2    0
