@<TRIPOS>MOLECULE
2,4,5
 60 63 0 0 0
SMALL
GASTEIGER

@<TRIPOS>ATOM
      1 SI         -3.9034    3.2705    6.3174 Si      1  UNL1        0.0000
      2 SI         -0.1497    1.6732    5.1935 Si      1  UNL1        0.0000
      3 O          -2.0713    1.0708    7.2176 O.3     1  UNL1        0.0000
      4 N          -3.2605    2.2680    5.0557 N.3     1  UNL1        0.0000
      5 C          -3.7673    1.0065    4.7844 C.3     1  UNL1        0.0000
      6 H          -3.6177    0.2393    5.5609 H       1  UNL1        0.0000
      7 C          -5.0803    0.9496    4.1393 C.ar    1  UNL1        0.0000
      8 C          -5.9490   -0.1262    4.3379 C.ar    1  UNL1        0.0000
      9 H          -5.6448   -0.9402    4.9831 H       1  UNL1        0.0000
     10 C          -7.1922   -0.1515    3.7342 C.ar    1  UNL1        0.0000
     11 H          -7.8506   -0.9931    3.8972 H       1  UNL1        0.0000
     12 C          -7.6015    0.9012    2.9318 C.ar    1  UNL1        0.0000
     13 H          -8.5768    0.8832    2.4687 H       1  UNL1        0.0000
     14 C          -6.7525    1.9797    2.7313 C.ar    1  UNL1        0.0000
     15 H          -7.0706    2.8043    2.1087 H       1  UNL1        0.0000
     16 C          -5.5043    2.0026    3.3192 C.ar    1  UNL1        0.0000
     17 H          -4.8331    2.8419    3.1585 H       1  UNL1        0.0000
     18 C          -5.7388    3.7184    5.9748 C.3     1  UNL1        0.0000
     19 H          -5.8497    4.2312    5.0249 H       1  UNL1        0.0000
     20 H          -6.1124    4.3874    6.7435 H       1  UNL1        0.0000
     21 H          -6.3823    2.8439    5.9554 H       1  UNL1        0.0000
     22 C          -2.9420    4.9152    6.4205 C.3     1  UNL1        0.0000
     23 H          -2.4772    5.0499    7.3907 H       1  UNL1        0.0000
     24 H          -3.6164    5.7508    6.2651 H       1  UNL1        0.0000
     25 H          -2.1652    4.9675    5.6664 H       1  UNL1        0.0000
     26 C          -3.9371    2.2656    7.9426 C.ar    1  UNL1        0.0000
     27 C          -4.9079    2.4954    8.9059 C.ar    1  UNL1        0.0000
     28 H          -5.6065    3.3048    8.7660 H       1  UNL1        0.0000
     29 C          -4.9969    1.7042   10.0366 C.ar    1  UNL1        0.0000
     30 H          -5.7572    1.8986   10.7786 H       1  UNL1        0.0000
     31 C          -4.1223    0.6483   10.2070 C.ar    1  UNL1        0.0000
     32 H          -4.2224    0.0198   11.0790 H       1  UNL1        0.0000
     33 C          -3.1239    0.3839    9.2780 C.ar    1  UNL1        0.0000
     34 C          -3.0343    1.2179    8.1653 C.ar    1  UNL1        0.0000
     35 C          -2.1895   -0.7985    9.4676 C.3     1  UNL1        0.0000
     36 C          -3.0178   -2.0940    9.4120 C.3     1  UNL1        0.0000
     37 H          -3.5152   -2.1789    8.4471 H       1  UNL1        0.0000
     38 H          -3.7769   -2.0996   10.1900 H       1  UNL1        0.0000
     39 H          -2.3794   -2.9635    9.5468 H       1  UNL1        0.0000
     40 C          -1.4863   -0.6763   10.8301 C.3     1  UNL1        0.0000
     41 H          -0.8086   -1.5104   10.9899 H       1  UNL1        0.0000
     42 H          -2.2087   -0.6661   11.6417 H       1  UNL1        0.0000
     43 H          -0.9107    0.2466   10.8685 H       1  UNL1        0.0000
     44 C          -1.1127    0.1114    7.3598 C.ar    1  UNL1        0.0000
     45 C          -1.1343   -0.8329    8.3780 C.ar    1  UNL1        0.0000
     46 C          -0.1331   -1.7986    8.3784 C.ar    1  UNL1        0.0000
     47 H          -0.1238   -2.5619    9.1422 H       1  UNL1        0.0000
     48 C           0.8609   -1.7940    7.4193 C.ar    1  UNL1        0.0000
     49 H           1.6301   -2.5526    7.4406 H       1  UNL1        0.0000
     50 C           0.8846   -0.8042    6.4500 C.ar    1  UNL1        0.0000
     51 H           1.6912   -0.7788    5.7343 H       1  UNL1        0.0000
     52 C          -0.1021    0.1660    6.3960 C.ar    1  UNL1        0.0000
     53 C           0.0090    3.1445    6.4450 C.3     1  UNL1        0.0000
     54 H          -0.8751    3.2552    7.0584 H       1  UNL1        0.0000
     55 H           0.1733    4.0817    5.9229 H       1  UNL1        0.0000
     56 H           0.8565    2.9853    7.1072 H       1  UNL1        0.0000
     57 C           1.6695    1.7526    4.5270 C.3     1  UNL1        0.0000
     58 H           2.3541    1.8744    5.3601 H       1  UNL1        0.0000
     59 H           1.7974    2.6103    3.8763 H       1  UNL1        0.0000
     60 H           1.9878    0.8730    3.9823 H       1  UNL1        0.0000
@<TRIPOS>BOND
     1    15    14    1
     2    13    12    1
     3    14    12   ar
     4    14    16   ar
     5    12    10   ar
     6    17    16    1
     7    16     7   ar
     8    10    11    1
     9    10     8   ar
    10    59    57    1
    11    60    57    1
    12     7     8   ar
    13     7     5    1
    14     8     9    1
    15    57     2    1
    16    57    58    1
    17     5     4    1
    18     5     6    1
    19    19    18    1
    20     4     1    1
    21     2    52    1
    22     2    53    1
    23    25    22    1
    24    51    50    1
    25    55    53    1
    26    21    18    1
    27    18     1    1
    28    18    20    1
    29    24    22    1
    30     1    22    1
    31     1    26    1
    32    52    50   ar
    33    52    44   ar
    34    22    23    1
    35    53    54    1
    36    53    56    1
    37    50    48   ar
    38     3    44    1
    39     3    34    1
    40    44    45   ar
    41    48    49    1
    42    48    46   ar
    43    26    34   ar
    44    26    27   ar
    45    34    33   ar
    46    45    46   ar
    47    45    35    1
    48    46    47    1
    49    37    36    1
    50    28    27    1
    51    27    29   ar
    52    33    35    1
    53    33    31   ar
    54    36    35    1
    55    36    39    1
    56    36    38    1
    57    35    40    1
    58    29    31   ar
    59    29    30    1
    60    31    32    1
    61    40    43    1
    62    40    41    1
    63    40    42    1
