@<TRIPOS>MOLECULE
1,8,9
 82 83 0 0 0
SMALL
GASTEIGER

@<TRIPOS>ATOM
      1 SI          2.5673   -1.7259    3.2368 Si      1  UNL1        0.0000
      2 SI          1.8027    0.5643    2.7249 Si      1  UNL1        0.0000
      3 SI          3.0825    2.1853    3.9928 Si      1  UNL1        0.0000
      4 SI          3.9489    3.9813    2.6418 Si      1  UNL1        0.0000
      5 SI          1.9333    3.3300    5.7574 Si      1  UNL1        0.0000
      6 SI          1.0187   -2.4808    4.9163 Si      1  UNL1        0.0000
      7 SI          2.2424   -3.3234    1.4599 Si      1  UNL1        0.0000
      8 N           5.4136    0.9174    5.2013 N.2     1  UNL1        0.0000
      9 C           4.4085    0.8654    4.4114 C.2     1  UNL1        0.0000
     10 C           2.0114    1.0058    0.8583 C.3     1  UNL1        0.0000
     11 H           1.5803    0.2412    0.2195 H       1  UNL1        0.0000
     12 H           3.0546    1.1183    0.5828 H       1  UNL1        0.0000
     13 H           1.5100    1.9378    0.6195 H       1  UNL1        0.0000
     14 C          -0.0610    0.9559    2.9948 C.3     1  UNL1        0.0000
     15 H          -0.2989    1.9792    2.7199 H       1  UNL1        0.0000
     16 H          -0.3489    0.8208    4.0312 H       1  UNL1        0.0000
     17 H          -0.6885    0.3084    2.3915 H       1  UNL1        0.0000
     18 C           5.2703    3.7668    1.2602 C.3     1  UNL1        0.0000
     19 H           5.3745    4.6951    0.7017 H       1  UNL1        0.0000
     20 H           4.9803    3.0019    0.5454 H       1  UNL1        0.0000
     21 H           6.2553    3.5139    1.6400 H       1  UNL1        0.0000
     22 C           4.6304    5.3741    3.7740 C.3     1  UNL1        0.0000
     23 H           5.2105    4.9723    4.5988 H       1  UNL1        0.0000
     24 H           3.8175    5.9521    4.2017 H       1  UNL1        0.0000
     25 H           5.2678    6.0659    3.2298 H       1  UNL1        0.0000
     26 C           2.4595    4.6936    1.6700 C.3     1  UNL1        0.0000
     27 H           1.5232    4.5535    2.1972 H       1  UNL1        0.0000
     28 H           2.3605    4.2161    0.7010 H       1  UNL1        0.0000
     29 H           2.5773    5.7589    1.4928 H       1  UNL1        0.0000
     30 C           2.9785    4.3963    6.9602 C.3     1  UNL1        0.0000
     31 H           2.3975    4.7037    7.8267 H       1  UNL1        0.0000
     32 H           3.3381    5.2977    6.4756 H       1  UNL1        0.0000
     33 H           3.8483    3.8611    7.3242 H       1  UNL1        0.0000
     34 C           0.6986    4.5465    4.9435 C.3     1  UNL1        0.0000
     35 H           0.0572    5.0100    5.6879 H       1  UNL1        0.0000
     36 H           0.0521    4.0371    4.2362 H       1  UNL1        0.0000
     37 H           1.2059    5.3453    4.4134 H       1  UNL1        0.0000
     38 C           0.8232    2.2138    6.8482 C.3     1  UNL1        0.0000
     39 H           1.3925    1.4943    7.4248 H       1  UNL1        0.0000
     40 H           0.1181    1.6589    6.2382 H       1  UNL1        0.0000
     41 H           0.2444    2.8083    7.5508 H       1  UNL1        0.0000
     42 C           1.2754   -1.3006    6.4095 C.3     1  UNL1        0.0000
     43 H           2.0213   -0.5444    6.1668 H       1  UNL1        0.0000
     44 H           1.6043   -1.8242    7.3019 H       1  UNL1        0.0000
     45 H           0.3590   -0.7824    6.6678 H       1  UNL1        0.0000
     46 C          -0.8622   -2.4400    4.5379 C.3     1  UNL1        0.0000
     47 H          -1.1260   -3.1521    3.7636 H       1  UNL1        0.0000
     48 H          -1.1706   -1.4598    4.1931 H       1  UNL1        0.0000
     49 H          -1.4561   -2.6794    5.4169 H       1  UNL1        0.0000
     50 C           1.3123   -4.2651    5.5683 C.3     1  UNL1        0.0000
     51 H           0.5050   -4.5894    6.2203 H       1  UNL1        0.0000
     52 H           2.2336   -4.3430    6.1370 H       1  UNL1        0.0000
     53 H           1.3688   -4.9779    4.7510 H       1  UNL1        0.0000
     54 C           2.7458   -2.8311   -0.3262 C.3     1  UNL1        0.0000
     55 H           2.4492   -3.5936   -1.0422 H       1  UNL1        0.0000
     56 H           3.8173   -2.6953   -0.4274 H       1  UNL1        0.0000
     57 H           2.2684   -1.9052   -0.6303 H       1  UNL1        0.0000
     58 C           3.3324   -4.8436    1.9089 C.3     1  UNL1        0.0000
     59 H           2.8914   -5.4073    2.7256 H       1  UNL1        0.0000
     60 H           4.3278   -4.5400    2.2269 H       1  UNL1        0.0000
     61 H           3.4497   -5.5284    1.0736 H       1  UNL1        0.0000
     62 C           0.4587   -4.0069    1.2821 C.3     1  UNL1        0.0000
     63 H           0.3758   -4.7304    0.4753 H       1  UNL1        0.0000
     64 H          -0.2467   -3.2080    1.0779 H       1  UNL1        0.0000
     65 H           0.1395   -4.4989    2.1949 H       1  UNL1        0.0000
     66 C           5.8235    1.8870    6.1224 C.ar    1  UNL1        0.0000
     67 C           6.8165    2.8198    5.7838 C.ar    1  UNL1        0.0000
     68 C           7.3122    3.6741    6.7550 C.ar    1  UNL1        0.0000
     69 C           6.8591    3.6139    8.0600 C.ar    1  UNL1        0.0000
     70 C           5.8877    2.6893    8.3945 C.ar    1  UNL1        0.0000
     71 C           5.3548    1.8291    7.4457 C.ar    1  UNL1        0.0000
     72 C           4.2899    0.8571    7.8642 C.3     1  UNL1        0.0000
     73 H           4.7078    0.0917    8.5188 H       1  UNL1        0.0000
     74 H           3.8403    0.3687    7.0001 H       1  UNL1        0.0000
     75 H           3.5117    1.3757    8.4210 H       1  UNL1        0.0000
     76 C           7.3734    2.8825    4.3926 C.3     1  UNL1        0.0000
     77 H           7.5638    3.9135    4.1026 H       1  UNL1        0.0000
     78 H           6.6857    2.4349    3.6806 H       1  UNL1        0.0000
     79 H           8.3231    2.3460    4.3508 H       1  UNL1        0.0000
     80 H           8.0683    4.3953    6.4790 H       1  UNL1        0.0000
     81 H           5.5210    2.6339    9.4096 H       1  UNL1        0.0000
     82 H           7.2570    4.2823    8.8081 H       1  UNL1        0.0000
@<TRIPOS>BOND
     1    55    54    1
     2    57    54    1
     3    56    54    1
     4    54     7    1
     5    11    10    1
     6    63    62    1
     7    20    18    1
     8    12    10    1
     9    13    10    1
    10    28    26    1
    11    19    18    1
    12    10     2    1
    13    61    58    1
    14    64    62    1
    15    18    21    1
    16    18     4    1
    17    62     7    1
    18    62    65    1
    19     7    58    1
    20     7     1    1
    21    29    26    1
    22    26    27    1
    23    26     4    1
    24    58    60    1
    25    58    59    1
    26    17    14    1
    27     4    22    1
    28     4     3    1
    29    15    14    1
    30     2    14    1
    31     2     1    1
    32     2     3    1
    33    14    16    1
    34    25    22    1
    35     1     6    1
    36    78    76    1
    37    47    46    1
    38    22    24    1
    39    22    23    1
    40     3     9    1
    41     3     5    1
    42    77    76    1
    43    48    46    1
    44    36    34    1
    45    79    76    1
    46    76    67    1
    47     9     8    2
    48    37    34    1
    49    46     6    1
    50    46    49    1
    51    53    50    1
    52     6    50    1
    53     6    42    1
    54    34    35    1
    55    34     5    1
    56     8    66    1
    57    50    52    1
    58    50    51    1
    59     5    38    1
    60     5    30    1
    61    67    66   ar
    62    67    68   ar
    63    66    71   ar
    64    43    42    1
    65    40    38    1
    66    42    45    1
    67    42    44    1
    68    32    30    1
    69    80    68    1
    70    68    69   ar
    71    38    39    1
    72    38    41    1
    73    30    33    1
    74    30    31    1
    75    74    72    1
    76    71    72    1
    77    71    70   ar
    78    72    75    1
    79    72    73    1
    80    69    70   ar
    81    69    82    1
    82    70    81    1
    83     3     8    0
