@<TRIPOS>MOLECULE
1,2,3,4,6
 112 122 0 0 0
SMALL
GASTEIGER

@<TRIPOS>ATOM
      1 SI          6.6414    9.6007    6.7151 Si      1  UNL1        0.0000
      2 P           8.2876   11.4263    5.1673 P.3     1  UNL1        0.0000
      3 P           8.2631    8.1220    4.6658 P.3     1  UNL1        0.0000
      4 P           4.8600    8.7157    4.3549 P.3     1  UNL1        0.0000
      5 B           6.7958   11.9574    2.3466 B       1  UNL1        0.0000
      6 O           7.1956   10.6277    2.1018 O.2     1  UNL1        0.0000
      7 O           5.6878   12.2651    1.5800 O.2     1  UNL1        0.0000
      8 C           6.7937   11.3609    7.4463 C.ar    1  UNL1        0.0000
      9 C           6.2063   11.8537    8.5972 C.ar    1  UNL1        0.0000
     10 H           5.6107   11.1965    9.2129 H       1  UNL1        0.0000
     11 C           6.3591   13.1848    8.9528 C.ar    1  UNL1        0.0000
     12 H           5.8903   13.5636    9.8499 H       1  UNL1        0.0000
     13 C           7.1019   14.0323    8.1498 C.ar    1  UNL1        0.0000
     14 H           7.2122   15.0738    8.4169 H       1  UNL1        0.0000
     15 C           7.7011   13.5536    6.9949 C.ar    1  UNL1        0.0000
     16 H           8.2659   14.2301    6.3695 H       1  UNL1        0.0000
     17 C           7.5497   12.2206    6.6434 C.ar    1  UNL1        0.0000
     18 C           8.2087    8.6892    7.3452 C.ar    1  UNL1        0.0000
     19 C           8.6494    8.6663    8.6577 C.ar    1  UNL1        0.0000
     20 H           8.0107    9.0585    9.4362 H       1  UNL1        0.0000
     21 C           9.8998    8.1618    8.9736 C.ar    1  UNL1        0.0000
     22 H          10.2351    8.1443   10.0009 H       1  UNL1        0.0000
     23 C          10.7306    7.7062    7.9651 C.ar    1  UNL1        0.0000
     24 H          11.7211    7.3439    8.2011 H       1  UNL1        0.0000
     25 C          10.2998    7.7094    6.6487 C.ar    1  UNL1        0.0000
     26 H          10.9697    7.3682    5.8735 H       1  UNL1        0.0000
     27 C           9.0344    8.1816    6.3344 C.ar    1  UNL1        0.0000
     28 C           4.9310    8.8751    7.1360 C.ar    1  UNL1        0.0000
     29 C           4.4040    8.7116    8.4058 C.ar    1  UNL1        0.0000
     30 H           5.0401    8.8566    9.2664 H       1  UNL1        0.0000
     31 C           3.0762    8.3605    8.5805 C.ar    1  UNL1        0.0000
     32 H           2.6735    8.2370    9.5759 H       1  UNL1        0.0000
     33 C           2.2559    8.1854    7.4770 C.ar    1  UNL1        0.0000
     34 H           1.2126    7.9370    7.6111 H       1  UNL1        0.0000
     35 C           2.7753    8.3171    6.2016 C.ar    1  UNL1        0.0000
     36 H           2.1401    8.1700    5.3372 H       1  UNL1        0.0000
     37 C           4.1161    8.6462    6.0286 C.ar    1  UNL1        0.0000
     38 C           9.9843   11.1334    5.7812 C.ar    1  UNL1        0.0000
     39 C          10.3004   11.1052    7.1345 C.ar    1  UNL1        0.0000
     40 H           9.5419   11.3337    7.8696 H       1  UNL1        0.0000
     41 C          11.5842   10.7864    7.5391 C.ar    1  UNL1        0.0000
     42 H          11.8230   10.7698    8.5926 H       1  UNL1        0.0000
     43 C          12.5589   10.4860    6.6028 C.ar    1  UNL1        0.0000
     44 H          13.5576   10.2286    6.9245 H       1  UNL1        0.0000
     45 C          12.2530   10.5223    5.2518 C.ar    1  UNL1        0.0000
     46 H          13.0118   10.2966    4.5158 H       1  UNL1        0.0000
     47 C          10.9747   10.8485    4.8448 C.ar    1  UNL1        0.0000
     48 H          10.7350   10.8993    3.7911 H       1  UNL1        0.0000
     49 C           8.5840   12.8527    4.0658 C.ar    1  UNL1        0.0000
     50 C           9.5657   13.7927    4.3762 C.ar    1  UNL1        0.0000
     51 H          10.2321   13.6078    5.2086 H       1  UNL1        0.0000
     52 C           9.6976   14.9465    3.6272 C.ar    1  UNL1        0.0000
     53 H          10.4578   15.6715    3.8808 H       1  UNL1        0.0000
     54 C           8.8422   15.1745    2.5611 C.ar    1  UNL1        0.0000
     55 H           8.9250   16.0840    1.9843 H       1  UNL1        0.0000
     56 C           7.8946   14.2269    2.2235 C.ar    1  UNL1        0.0000
     57 H           7.2474   14.3918    1.3743 H       1  UNL1        0.0000
     58 C           7.7542   13.0429    2.9520 C.ar    1  UNL1        0.0000
     59 C           9.6775    7.8351    3.5435 C.ar    1  UNL1        0.0000
     60 C          10.4999    6.7101    3.5927 C.ar    1  UNL1        0.0000
     61 H          10.2974    5.9241    4.3076 H       1  UNL1        0.0000
     62 C          11.5545    6.5848    2.7081 C.ar    1  UNL1        0.0000
     63 H          12.1937    5.7145    2.7561 H       1  UNL1        0.0000
     64 C          11.7914    7.5641    1.7551 C.ar    1  UNL1        0.0000
     65 H          12.6171    7.4582    1.0663 H       1  UNL1        0.0000
     66 C          10.9586    8.6667    1.6768 C.ar    1  UNL1        0.0000
     67 H          11.1271    9.4220    0.9216 H       1  UNL1        0.0000
     68 C           9.9075    8.7976    2.5672 C.ar    1  UNL1        0.0000
     69 H           9.2422    9.6527    2.5082 H       1  UNL1        0.0000
     70 C           7.6285    6.4065    4.7835 C.ar    1  UNL1        0.0000
     71 C           7.0760    5.9307    5.9682 C.ar    1  UNL1        0.0000
     72 H           7.0232    6.5760    6.8342 H       1  UNL1        0.0000
     73 C           6.6059    4.6331    6.0465 C.ar    1  UNL1        0.0000
     74 H           6.1915    4.2697    6.9759 H       1  UNL1        0.0000
     75 C           6.6713    3.7990    4.9434 C.ar    1  UNL1        0.0000
     76 H           6.3188    2.7802    5.0106 H       1  UNL1        0.0000
     77 C           7.1789    4.2795    3.7485 C.ar    1  UNL1        0.0000
     78 H           7.2130    3.6396    2.8783 H       1  UNL1        0.0000
     79 C           7.6435    5.5779    3.6649 C.ar    1  UNL1        0.0000
     80 H           8.0346    5.9506    2.7268 H       1  UNL1        0.0000
     81 C           4.5759    6.9849    3.8098 C.ar    1  UNL1        0.0000
     82 C           3.9863    5.9794    4.5649 C.ar    1  UNL1        0.0000
     83 H           3.7162    6.1559    5.5949 H       1  UNL1        0.0000
     84 C           3.7416    4.7408    3.9978 C.ar    1  UNL1        0.0000
     85 H           3.2737    3.9683    4.5913 H       1  UNL1        0.0000
     86 C           4.0842    4.4864    2.6813 C.ar    1  UNL1        0.0000
     87 H           3.8737    3.5220    2.2422 H       1  UNL1        0.0000
     88 C           4.7153    5.4682    1.9359 C.ar    1  UNL1        0.0000
     89 H           5.0087    5.2725    0.9140 H       1  UNL1        0.0000
     90 C           4.9693    6.7005    2.5050 C.ar    1  UNL1        0.0000
     91 H           5.4756    7.4727    1.9403 H       1  UNL1        0.0000
     92 C           3.4916    9.5420    3.4541 C.ar    1  UNL1        0.0000
     93 C           3.1012   10.7804    3.9629 C.ar    1  UNL1        0.0000
     94 H           3.5774   11.1509    4.8624 H       1  UNL1        0.0000
     95 C           2.1304   11.5272    3.3270 C.ar    1  UNL1        0.0000
     96 H           1.8390   12.4866    3.7298 H       1  UNL1        0.0000
     97 C           1.5317   11.0469    2.1723 C.ar    1  UNL1        0.0000
     98 H           0.7734   11.6310    1.6709 H       1  UNL1        0.0000
     99 C           1.9066    9.8151    1.6672 C.ar    1  UNL1        0.0000
    100 H           1.4390    9.4308    0.7717 H       1  UNL1        0.0000
    101 C           2.8823    9.0637    2.3009 C.ar    1  UNL1        0.0000
    102 H           3.1577    8.1022    1.8919 H       1  UNL1        0.0000
    103 C           6.3404   10.1587    1.1517 C.ar    1  UNL1        0.0000
    104 C           6.3841    8.9695    0.4525 C.ar    1  UNL1        0.0000
    105 H           7.1583    8.2399    0.6417 H       1  UNL1        0.0000
    106 C           5.4043    8.7766   -0.5123 C.ar    1  UNL1        0.0000
    107 H           5.4000    7.8574   -1.0787 H       1  UNL1        0.0000
    108 C           4.4384    9.7388   -0.7677 C.ar    1  UNL1        0.0000
    109 H           3.6916    9.5477   -1.5232 H       1  UNL1        0.0000
    110 C           4.4222   10.9533   -0.0959 C.ar    1  UNL1        0.0000
    111 H           3.6927   11.7158   -0.3137 H       1  UNL1        0.0000
    112 C           5.4004   11.1536    0.8550 C.ar    1  UNL1        0.0000
@<TRIPOS>BOND
     1   109   108    1
     2   107   106    1
     3   108   106   ar
     4   108   110   ar
     5   106   104   ar
     6   111   110    1
     7   110   112   ar
     8   104   105    1
     9   104   103   ar
    10   100    99    1
    11   112   103   ar
    12   112     7   ar
    13    89    88    1
    14    67    66    1
    15    65    64    1
    16   103     6   ar
    17    57    56    1
    18     7     5   ar
    19    99    97   ar
    20    99   101   ar
    21    98    97    1
    22    66    64   ar
    23    66    68   ar
    24    64    62   ar
    25   102   101    1
    26    88    90   ar
    27    88    86   ar
    28    91    90    1
    29    55    54    1
    30     6     5   ar
    31    97    95   ar
    32    56    54   ar
    33    56    58   ar
    34    87    86    1
    35   101    92   ar
    36     5    58    1
    37    90    81   ar
    38    69    68    1
    39    54    52   ar
    40    68    59   ar
    41    86    84   ar
    42    62    63    1
    43    62    60   ar
    44    80    79    1
    45    78    77    1
    46    58    49   ar
    47    95    96    1
    48    95    93   ar
    49    92    93   ar
    50    92     4    1
    51    59    60   ar
    52    59     3    1
    53    60    61    1
    54    52    53    1
    55    52    50   ar
    56    79    77   ar
    57    79    70   ar
    58    77    75   ar
    59    48    47    1
    60    81     4    1
    61    81    82   ar
    62    93    94    1
    63    84    82   ar
    64    84    85    1
    65    49    50   ar
    66    49     2    1
    67     4    37    1
    68    50    51    1
    69    46    45    1
    70    82    83    1
    71     3    70    1
    72     3    27    1
    73    70    71   ar
    74    47    45   ar
    75    47    38   ar
    76    75    76    1
    77    75    73   ar
    78     2    38    1
    79     2    17    1
    80    45    43   ar
    81    36    35    1
    82    38    39   ar
    83    26    25    1
    84    71    73   ar
    85    71    72    1
    86    37    35   ar
    87    37    28   ar
    88    73    74    1
    89    35    33   ar
    90    27    25   ar
    91    27    18   ar
    92    16    15    1
    93    43    44    1
    94    43    41   ar
    95    17    15   ar
    96    17     8   ar
    97    25    23   ar
    98     1    28    1
    99     1    18    1
   100     1     8    1
   101    15    13   ar
   102    39    41   ar
   103    39    40    1
   104    28    29   ar
   105    18    19   ar
   106     8     9   ar
   107    33    34    1
   108    33    31   ar
   109    41    42    1
   110    23    24    1
   111    23    21   ar
   112    13    14    1
   113    13    11   ar
   114    29    31   ar
   115    29    30    1
   116    31    32    1
   117     9    11   ar
   118     9    10    1
   119    19    21   ar
   120    19    20    1
   121    11    12    1
   122    21    22    1
