@<TRIPOS>MOLECULE
1,3,4,5,6,7
 31 31 0 0 0
SMALL
GASTEIGER

@<TRIPOS>ATOM
      1 S           6.6377    5.8860    2.4100 S.3     1  UNL1        0.0000
      2 SI          7.4051    6.7925    0.6429 Si      1  UNL1        0.0000
      3 C           8.4324    8.0106    1.6442 C.3     1  UNL1        0.0000
      4 C           7.8214    9.0003    2.4652 C.3     1  UNL1        0.0000
      5 C           8.7929    9.4734    3.3876 C.2     1  UNL1        0.0000
      6 C          10.0116    8.7898    3.1328 C.2     1  UNL1        0.0000
      7 C           9.7744    7.8548    2.0888 C.3     1  UNL1        0.0000
      8 C           6.4699    9.5989    2.2243 C.3     1  UNL1        0.0000
      9 H           6.2323   10.3367    2.9865 H       1  UNL1        0.0000
     10 H           5.6944    8.8313    2.2473 H       1  UNL1        0.0000
     11 H           6.4511   10.0836    1.2465 H       1  UNL1        0.0000
     12 C           8.6034   10.6394    4.3110 C.3     1  UNL1        0.0000
     13 H           9.4215   10.7210    5.0249 H       1  UNL1        0.0000
     14 H           7.6657   10.5416    4.8612 H       1  UNL1        0.0000
     15 H           8.5656   11.5665    3.7348 H       1  UNL1        0.0000
     16 C          11.3599    9.2739    3.5811 C.3     1  UNL1        0.0000
     17 H          12.1074    8.4847    3.5796 H       1  UNL1        0.0000
     18 H          11.3275    9.7195    4.5721 H       1  UNL1        0.0000
     19 H          11.6976   10.0462    2.8841 H       1  UNL1        0.0000
     20 C          10.8166    7.0878    1.3292 C.3     1  UNL1        0.0000
     21 H          11.8035    7.2187    1.7656 H       1  UNL1        0.0000
     22 H          10.8542    7.4534    0.3014 H       1  UNL1        0.0000
     23 H          10.5856    6.0235    1.2889 H       1  UNL1        0.0000
     24 C           8.3811    5.5457   -0.4304 C.3     1  UNL1        0.0000
     25 H           9.0364    6.0474   -1.1337 H       1  UNL1        0.0000
     26 H           7.6742    4.9559   -1.0040 H       1  UNL1        0.0000
     27 H           8.9738    4.8549    0.1597 H       1  UNL1        0.0000
     28 C           6.1076    7.5920   -0.5077 C.3     1  UNL1        0.0000
     29 H           5.2407    7.9470    0.0376 H       1  UNL1        0.0000
     30 H           5.7641    6.8586   -1.2290 H       1  UNL1        0.0000
     31 H           6.5255    8.4276   -1.0598 H       1  UNL1        0.0000
@<TRIPOS>BOND
     1    30    28    1
     2    25    24    1
     3    31    28    1
     4    26    24    1
     5    28    29    1
     6    28     2    1
     7    24    27    1
     8    24     2    1
     9    22    20    1
    10     2     3    1
    11     2     1    1
    12    11     8    1
    13    23    20    1
    14    20    21    1
    15    20     7    1
    16     3     7    1
    17     3     4    1
    18     7     6    1
    19     8    10    1
    20     8     4    1
    21     8     9    1
    22     4     5    1
    23    19    16    1
    24     6     5    2
    25     6    16    1
    26     5    12    1
    27    17    16    1
    28    16    18    1
    29    15    12    1
    30    12    14    1
    31    12    13    1
