@<TRIPOS>MOLECULE
1,3,4,5,6,7
 31 31 0 0 0
SMALL
GASTEIGER

@<TRIPOS>ATOM
      1 S           6.3566    8.1694    4.9819 S.3     1  UNL1        0.0000
      2 SI          7.1280    7.3862    6.8053 Si      1  UNL1        0.0000
      3 C           8.4110    6.3589    5.8886 C.3     1  UNL1        0.0000
      4 C           8.0325    5.2883    5.0301 C.3     1  UNL1        0.0000
      5 C           9.1336    4.9868    4.1843 C.2     1  UNL1        0.0000
      6 C          10.2017    5.8590    4.5244 C.2     1  UNL1        0.0000
      7 C           9.7383    6.7355    5.5430 C.3     1  UNL1        0.0000
      8 C           6.7837    4.4741    5.1743 C.3     1  UNL1        0.0000
      9 H           6.7260    3.7139    4.3994 H       1  UNL1        0.0000
     10 H           5.8965    5.1044    5.0923 H       1  UNL1        0.0000
     11 H           6.7743    3.9846    6.1498 H       1  UNL1        0.0000
     12 C           9.2053    3.8117    3.2557 C.3     1  UNL1        0.0000
     13 H          10.0760    3.8695    2.6043 H       1  UNL1        0.0000
     14 H           8.3072    3.7589    2.6376 H       1  UNL1        0.0000
     15 H           9.2772    2.8870    3.8325 H       1  UNL1        0.0000
     16 C          11.6405    5.6066    4.1796 C.3     1  UNL1        0.0000
     17 H          12.0519    4.9047    4.9107 H       1  UNL1        0.0000
     18 H          12.2436    6.5100    4.2208 H       1  UNL1        0.0000
     19 H          11.7539    5.1581    3.1959 H       1  UNL1        0.0000
     20 C          10.5825    7.6574    6.3730 C.3     1  UNL1        0.0000
     21 H          10.1811    8.6705    6.3870 H       1  UNL1        0.0000
     22 H          11.6080    7.6885    6.0134 H       1  UNL1        0.0000
     23 H          10.6001    7.2985    7.4037 H       1  UNL1        0.0000
     24 C           7.8061    8.7664    7.9429 C.3     1  UNL1        0.0000
     25 H           8.4758    8.3712    8.6986 H       1  UNL1        0.0000
     26 H           6.9717    9.2326    8.4557 H       1  UNL1        0.0000
     27 H           8.3256    9.5464    7.3966 H       1  UNL1        0.0000
     28 C           5.8963    6.3787    7.8607 C.3     1  UNL1        0.0000
     29 H           6.4035    5.6242    8.4531 H       1  UNL1        0.0000
     30 H           5.1461    5.8843    7.2543 H       1  UNL1        0.0000
     31 H           5.3797    7.0431    8.5448 H       1  UNL1        0.0000
@<TRIPOS>BOND
     1    13    12    1
     2    14    12    1
     3    19    16    1
     4    12    15    1
     5    12     5    1
     6    16    18    1
     7    16     6    1
     8    16    17    1
     9     5     6    2
    10     5     4    1
    11     9     8    1
    12     6     7    1
    13     1     2    1
    14     4     8    1
    15     4     3    1
    16    10     8    1
    17     8    11    1
    18     7     3    1
    19     7    20    1
    20     3     2    1
    21    22    20    1
    22    20    21    1
    23    20    23    1
    24     2    28    1
    25     2    24    1
    26    30    28    1
    27    27    24    1
    28    28    29    1
    29    28    31    1
    30    24    26    1
    31    24    25    1
