@<TRIPOS>MOLECULE
1,3,4
 51 52 0 0 0
SMALL
GASTEIGER

@<TRIPOS>ATOM
      1 P          11.3592    2.3694   25.6853 P.3     1  UNL1        0.0000
      2 SI         13.6387    1.9212   23.3775 Si      1  UNL1        0.0000
      3 O           9.6003    5.5718   23.3537 O.2     1  UNL1        0.0000
      4 N          11.0429    3.2199   23.3222 N.3     1  UNL1        0.0000
      5 C          12.5206    1.3300   26.6322 C.ar    1  UNL1        0.0000
      6 C           9.9813    1.1274   25.7135 C.ar    1  UNL1        0.0000
      7 C          12.6833   -0.0121   26.3024 C.ar    1  UNL1        0.0000
      8 H          12.1154   -0.4288   25.4838 H       1  UNL1        0.0000
      9 C          13.2326    1.8603   27.6988 C.ar    1  UNL1        0.0000
     10 H          13.0918    2.8975   27.9607 H       1  UNL1        0.0000
     11 C          11.8928    2.3056   23.9564 C.3     1  UNL1        0.0000
     12 C          14.1095    1.0688   28.4186 C.ar    1  UNL1        0.0000
     13 H          14.6613    1.4887   29.2477 H       1  UNL1        0.0000
     14 C          10.6226    3.1190   22.0808 C.3     1  UNL1        0.0000
     15 C           9.2418    5.1909   22.1617 C.2     1  UNL1        0.0000
     16 C           9.4101    0.8206   26.9442 C.ar    1  UNL1        0.0000
     17 H           9.7918    1.2972   27.8369 H       1  UNL1        0.0000
     18 C          14.9490    2.1371   24.7534 C.3     1  UNL1        0.0000
     19 H          14.7345    3.0145   25.3551 H       1  UNL1        0.0000
     20 H          15.9346    2.2707   24.3178 H       1  UNL1        0.0000
     21 H          14.9957    1.2799   25.4147 H       1  UNL1        0.0000
     22 C           9.4941    0.5091   24.5698 C.ar    1  UNL1        0.0000
     23 H           9.9402    0.7371   23.6124 H       1  UNL1        0.0000
     24 C          10.9858    1.9481   21.2045 C.3     1  UNL1        0.0000
     25 H          11.8103    2.1864   20.5350 H       1  UNL1        0.0000
     26 H          10.1301    1.6646   20.5942 H       1  UNL1        0.0000
     27 H          11.2902    1.1052   21.8226 H       1  UNL1        0.0000
     28 C          13.8353    0.1269   22.7188 C.3     1  UNL1        0.0000
     29 H          13.3586   -0.5987   23.3703 H       1  UNL1        0.0000
     30 H          14.8887   -0.1305   22.6639 H       1  UNL1        0.0000
     31 H          13.4201    0.0003   21.7237 H       1  UNL1        0.0000
     32 C          14.2543    3.1164   22.0167 C.3     1  UNL1        0.0000
     33 H          13.5885    3.1821   21.1650 H       1  UNL1        0.0000
     34 H          15.2213    2.7885   21.6465 H       1  UNL1        0.0000
     35 H          14.3790    4.1178   22.4180 H       1  UNL1        0.0000
     36 C           8.2483    6.0960   21.4624 C.3     1  UNL1        0.0000
     37 H           7.3496    6.1912   22.0711 H       1  UNL1        0.0000
     38 H           7.9809    5.7120   20.4828 H       1  UNL1        0.0000
     39 H           8.6780    7.0916   21.3546 H       1  UNL1        0.0000
     40 C           8.3730   -0.0873   27.0299 C.ar    1  UNL1        0.0000
     41 H           7.9403   -0.3223   27.9914 H       1  UNL1        0.0000
     42 C          14.2792   -0.2621   28.0767 C.ar    1  UNL1        0.0000
     43 H          14.9654   -0.8815   28.6358 H       1  UNL1        0.0000
     44 C          13.5631   -0.8006   27.0187 C.ar    1  UNL1        0.0000
     45 H          13.6924   -1.8406   26.7548 H       1  UNL1        0.0000
     46 C           9.7071    4.0657   21.5321 C.2     1  UNL1        0.0000
     47 H           9.3598    3.8672   20.5292 H       1  UNL1        0.0000
     48 C           8.4531   -0.3981   24.6546 C.ar    1  UNL1        0.0000
     49 H           8.0822   -0.8760   23.7585 H       1  UNL1        0.0000
     50 C           7.8887   -0.6962   25.8832 C.ar    1  UNL1        0.0000
     51 H           7.0751   -1.4044   25.9481 H       1  UNL1        0.0000
@<TRIPOS>BOND
     1    38    36    1
     2    47    46    1
     3    25    24    1
     4    26    24    1
     5    33    32    1
     6    24    27    1
     7    24    14    1
     8    39    36    1
     9    36    37    1
    10    36    15    1
    11    46    14    1
    12    46    15    2
    13    34    32    1
    14    31    28    1
    15    32    35    1
    16    32     2    1
    17    14     4    1
    18    15     3    1
    19    30    28    1
    20    28    29    1
    21    28     2    1
    22     4    11    1
    23     2    11    1
    24     2    18    1
    25    23    22    1
    26    49    48    1
    27    11     1    1
    28    20    18    1
    29    22    48   ar
    30    22     6   ar
    31    48    50   ar
    32    18    19    1
    33    18    21    1
    34     8     7    1
    35     1     6    1
    36     1     5    1
    37     6    16   ar
    38    50    51    1
    39    50    40   ar
    40     7     5   ar
    41     7    44   ar
    42     5     9   ar
    43    45    44    1
    44    16    40   ar
    45    16    17    1
    46    44    42   ar
    47    40    41    1
    48     9    10    1
    49     9    12   ar
    50    42    12   ar
    51    42    43    1
    52    12    13    1
