@<TRIPOS>MOLECULE
1,3,4
 87 90 0 0 0
SMALL
GASTEIGER

@<TRIPOS>ATOM
      1 P          14.7026   16.4567    9.5845 P.3     1  UNL1        0.0000
      2 SI         14.2706   10.4805    5.7121 Si      1  UNL1        0.0000
      3 O          17.0441   13.4918    6.6492 O.3     1  UNL1        0.0000
      4 N          14.2924   14.2467    7.6257 N.pl3   1  UNL1        0.0000
      5 C          18.7634   13.7027    4.3371 C.3     1  UNL1        0.0000
      6 C          19.4293   13.7584    2.9572 C.3     1  UNL1        0.0000
      7 H          19.0971   12.9369    2.3264 H       1  UNL1        0.0000
      8 H          20.5077   13.6720    3.0800 H       1  UNL1        0.0000
      9 H          19.2276   14.7014    2.4528 H       1  UNL1        0.0000
     10 C          19.1802   12.3828    4.9998 C.3     1  UNL1        0.0000
     11 H          18.7505   12.3149    5.9953 H       1  UNL1        0.0000
     12 H          20.2645   12.3260    5.0803 H       1  UNL1        0.0000
     13 H          18.8317   11.5404    4.4054 H       1  UNL1        0.0000
     14 C          19.2896   14.8849    5.1616 C.3     1  UNL1        0.0000
     15 H          19.0687   15.8224    4.6544 H       1  UNL1        0.0000
     16 H          20.3681   14.8070    5.2901 H       1  UNL1        0.0000
     17 H          18.8187   14.8914    6.1435 H       1  UNL1        0.0000
     18 C          17.2404   13.7767    4.2771 C.ar    1  UNL1        0.0000
     19 C          16.5793   13.9581    3.0752 C.ar    1  UNL1        0.0000
     20 H          17.1628   14.0600    2.1758 H       1  UNL1        0.0000
     21 C          15.1927   14.0195    2.9614 C.ar    1  UNL1        0.0000
     22 C          14.4574   13.8387    4.1209 C.ar    1  UNL1        0.0000
     23 H          13.3787   13.8480    4.0900 H       1  UNL1        0.0000
     24 C          15.0640   13.6268    5.3490 C.ar    1  UNL1        0.0000
     25 C          16.4738   13.6402    5.4674 C.ar    1  UNL1        0.0000
     26 C          15.6760   10.4177    4.4287 C.3     1  UNL1        0.0000
     27 H          16.6456   10.4301    4.9168 H       1  UNL1        0.0000
     28 H          15.6428   11.2706    3.7590 H       1  UNL1        0.0000
     29 H          15.6201    9.5152    3.8265 H       1  UNL1        0.0000
     30 C          14.2688    8.8256    6.6798 C.3     1  UNL1        0.0000
     31 H          14.1393    7.9857    6.0052 H       1  UNL1        0.0000
     32 H          13.4643    8.7817    7.4082 H       1  UNL1        0.0000
     33 H          15.2036    8.6721    7.2109 H       1  UNL1        0.0000
     34 C          12.5856   10.6472    4.8262 C.3     1  UNL1        0.0000
     35 H          12.5778   11.5022    4.1580 H       1  UNL1        0.0000
     36 H          11.7690   10.7712    5.5318 H       1  UNL1        0.0000
     37 H          12.3691    9.7653    4.2307 H       1  UNL1        0.0000
     38 C          14.5020   11.8539    7.0130 C.3     1  UNL1        0.0000
     39 H          13.8715   11.6440    7.8804 H       1  UNL1        0.0000
     40 H          15.5395   11.8491    7.3600 H       1  UNL1        0.0000
     41 C          14.1793   13.2825    6.5305 C.3     1  UNL1        0.0000
     42 H          13.1458   13.2974    6.1524 H       1  UNL1        0.0000
     43 C          13.2265   14.3890    8.4323 C.ar    1  UNL1        0.0000
     44 C          12.0340   13.6135    8.3777 C.ar    1  UNL1        0.0000
     45 H          11.9450   12.8122    7.6610 H       1  UNL1        0.0000
     46 C          10.9719   13.8391    9.2181 C.ar    1  UNL1        0.0000
     47 H          10.0917   13.2159    9.1299 H       1  UNL1        0.0000
     48 C          11.0070   14.8426   10.1801 C.ar    1  UNL1        0.0000
     49 H          10.1664   15.0120   10.8352 H       1  UNL1        0.0000
     50 C          12.1433   15.6191   10.2742 C.ar    1  UNL1        0.0000
     51 H          12.1919   16.4109   11.0108 H       1  UNL1        0.0000
     52 C          13.2306   15.4120    9.4330 C.ar    1  UNL1        0.0000
     53 C          14.1868   18.0247    8.7970 C.ar    1  UNL1        0.0000
     54 C          13.0010   18.1309    8.0782 C.ar    1  UNL1        0.0000
     55 H          12.3400   17.2785    8.0130 H       1  UNL1        0.0000
     56 C          15.0473   19.1211    8.8533 C.ar    1  UNL1        0.0000
     57 H          15.9800   19.0389    9.3961 H       1  UNL1        0.0000
     58 C          14.6289   16.8767   11.3627 C.ar    1  UNL1        0.0000
     59 C          14.4324   18.1477   11.8867 C.ar    1  UNL1        0.0000
     60 H          14.2645   18.9892   11.2305 H       1  UNL1        0.0000
     61 C          14.8288   15.8069   12.2324 C.ar    1  UNL1        0.0000
     62 H          14.9749   14.8197   11.8122 H       1  UNL1        0.0000
     63 C          12.6708   19.3193    7.4496 C.ar    1  UNL1        0.0000
     64 H          11.7449   19.3941    6.8977 H       1  UNL1        0.0000
     65 C          13.5215   20.4097    7.5247 C.ar    1  UNL1        0.0000
     66 H          13.2607   21.3364    7.0348 H       1  UNL1        0.0000
     67 C          14.7122   20.3074    8.2272 C.ar    1  UNL1        0.0000
     68 H          15.3810   21.1548    8.2840 H       1  UNL1        0.0000
     69 C          14.4349   18.3389   13.2581 C.ar    1  UNL1        0.0000
     70 H          14.2768   19.3302   13.6580 H       1  UNL1        0.0000
     71 C          14.6342   17.2712   14.1158 C.ar    1  UNL1        0.0000
     72 H          14.6364   17.4282   15.1844 H       1  UNL1        0.0000
     73 C          14.8274   15.9993   13.5987 C.ar    1  UNL1        0.0000
     74 H          14.9791   15.1621   14.2646 H       1  UNL1        0.0000
     75 C          14.5601   14.2346    1.5947 C.3     1  UNL1        0.0000
     76 C          14.9569   13.0745    0.6702 C.3     1  UNL1        0.0000
     77 H          16.0339   13.0289    0.5351 H       1  UNL1        0.0000
     78 H          14.4949   13.1953   -0.3079 H       1  UNL1        0.0000
     79 H          14.6267   12.1285    1.0946 H       1  UNL1        0.0000
     80 C          13.0313   14.2901    1.6563 C.3     1  UNL1        0.0000
     81 H          12.6204   13.3493    2.0147 H       1  UNL1        0.0000
     82 H          12.6331   14.4712    0.6595 H       1  UNL1        0.0000
     83 H          12.6957   15.0956    2.3056 H       1  UNL1        0.0000
     84 C          15.0573   15.5613    1.0031 C.3     1  UNL1        0.0000
     85 H          14.7665   16.3891    1.6465 H       1  UNL1        0.0000
     86 H          14.6240   15.7202    0.0174 H       1  UNL1        0.0000
     87 H          16.1390   15.5704    0.9040 H       1  UNL1        0.0000
@<TRIPOS>BOND
     1    78    76    1
     2    86    84    1
     3    77    76    1
     4    82    80    1
     5    76    79    1
     6    76    75    1
     7    87    84    1
     8    84    75    1
     9    84    85    1
    10    75    80    1
    11    75    21    1
    12    80    81    1
    13    80    83    1
    14    20    19    1
    15     7     6    1
    16     9     6    1
    17     6     8    1
    18     6     5    1
    19    21    19   ar
    20    21    22   ar
    21    19    18   ar
    22    28    26    1
    23    29    26    1
    24    23    22    1
    25    22    24   ar
    26    35    34    1
    27    37    34    1
    28    18     5    1
    29    18    25   ar
    30     5    10    1
    31     5    14    1
    32    13    10    1
    33    26    27    1
    34    26     2    1
    35    15    14    1
    36    34    36    1
    37    34     2    1
    38    10    12    1
    39    10    11    1
    40    14    16    1
    41    14    17    1
    42    24    25   ar
    43    24    41    1
    44    25     3    1
    45     2    30    1
    46     2    38    1
    47    31    30    1
    48    42    41    1
    49    41    38    1
    50    41     4    1
    51    30    33    1
    52    30    32    1
    53    64    63    1
    54    38    40    1
    55    38    39    1
    56    66    65    1
    57    63    65   ar
    58    63    54   ar
    59    65    67   ar
    60     4    43    1
    61    45    44    1
    62    55    54    1
    63    54    53   ar
    64    67    68    1
    65    67    56   ar
    66    44    43   ar
    67    44    46   ar
    68    43    52   ar
    69    53    56   ar
    70    53     1    1
    71    56    57    1
    72    47    46    1
    73    46    48   ar
    74    52     1    1
    75    52    50   ar
    76     1    58    1
    77    48    50   ar
    78    48    49    1
    79    50    51    1
    80    60    59    1
    81    58    59   ar
    82    58    61   ar
    83    62    61    1
    84    59    69   ar
    85    61    73   ar
    86    69    70    1
    87    69    71   ar
    88    73    71   ar
    89    73    74    1
    90    71    72    1
