@<TRIPOS>MOLECULE
1,2,3
 47 49 0 0 0
SMALL
GASTEIGER

@<TRIPOS>ATOM
      1 P          -2.0285    1.9506   12.3460 P.3     1  UNL1       -0.0112
      2 O          -2.8763    0.7058   16.0840 O.2     1  UNL1       -0.2932
      3 N          -1.8402   -0.4296   13.6432 N.pl3   1  UNL1       -0.2370
      4 C          -2.0378    3.1711   10.9900 C.ar    1  UNL1       -0.0146
      5 C          -3.2791    3.3522   10.3801 C.ar    1  UNL1       -0.0535
      6 H          -4.1190    2.7686   10.7373 H       1  UNL1        0.0624
      7 C          -3.4232    4.2603    9.3495 C.ar    1  UNL1       -0.0611
      8 H          -4.3837    4.3928    8.8724 H       1  UNL1        0.0618
      9 C          -2.3335    5.0113    8.9344 C.ar    1  UNL1       -0.0617
     10 H          -2.4433    5.7246    8.1306 H       1  UNL1        0.0618
     11 C          -1.1070    4.8566    9.5587 C.ar    1  UNL1       -0.0611
     12 H          -0.2625    5.4521    9.2424 H       1  UNL1        0.0618
     13 C          -0.9553    3.9430   10.5882 C.ar    1  UNL1       -0.0535
     14 H           0.0018    3.8312   11.0775 H       1  UNL1        0.0624
     15 C          -0.3258    2.0287   13.0118 C.ar    1  UNL1       -0.0146
     16 C           0.7869    1.6167   12.2860 C.ar    1  UNL1       -0.0535
     17 H           0.6666    1.2786   11.2649 H       1  UNL1        0.0624
     18 C           2.0383    1.6295   12.8751 C.ar    1  UNL1       -0.0611
     19 H           2.9024    1.3089   12.3107 H       1  UNL1        0.0618
     20 C           2.1849    2.0441   14.1893 C.ar    1  UNL1       -0.0617
     21 H           3.1634    2.0442   14.6473 H       1  UNL1        0.0618
     22 C           1.0782    2.4499   14.9174 C.ar    1  UNL1       -0.0611
     23 H           1.1933    2.7644   15.9445 H       1  UNL1        0.0618
     24 C          -0.1740    2.4428   14.3306 C.ar    1  UNL1       -0.0535
     25 H          -1.0532    2.7415   14.8912 H       1  UNL1        0.0624
     26 C          -1.9088    0.3897   11.4215 C.ar    1  UNL1        0.0079
     27 C          -1.9685    0.2159   10.0493 C.ar    1  UNL1       -0.0517
     28 H          -2.0142    1.0782    9.3978 H       1  UNL1        0.0625
     29 C          -1.9733   -1.0640    9.5183 C.ar    1  UNL1       -0.0610
     30 H          -2.0190   -1.2039    8.4483 H       1  UNL1        0.0618
     31 C          -1.9315   -2.1627   10.3610 C.ar    1  UNL1       -0.0599
     32 H          -1.9503   -3.1598    9.9445 H       1  UNL1        0.0618
     33 C          -1.8584   -1.9996   11.7325 C.ar    1  UNL1       -0.0385
     34 H          -1.8331   -2.8629   12.3810 H       1  UNL1        0.0637
     35 C          -1.8411   -0.7202   12.2844 C.ar    1  UNL1        0.0570
     36 C          -0.9206   -0.8776   14.4595 C.3     1  UNL1        0.0986
     37 C           0.2723   -1.6598   13.9604 C.3     1  UNL1       -0.0358
     38 H           0.1366   -2.7194   14.1750 H       1  UNL1        0.0255
     39 H           1.1711   -1.3256   14.4740 H       1  UNL1        0.0255
     40 H           0.4099   -1.5335   12.8889 H       1  UNL1        0.0255
     41 C          -0.9280   -0.6225   15.8438 C.2     1  UNL1       -0.0148
     42 H          -0.1021   -1.0419   16.3989 H       1  UNL1        0.0629
     43 C          -1.8574    0.1095   16.5650 C.2     1  UNL1        0.1513
     44 C          -1.6364    0.2547   18.0588 C.3     1  UNL1       -0.0022
     45 H          -1.3926    1.2925   18.2827 H       1  UNL1        0.0309
     46 H          -0.8341   -0.3849   18.4122 H       1  UNL1        0.0309
     47 H          -2.5568    0.0102   18.5848 H       1  UNL1        0.0309
@<TRIPOS>BOND
     1    10     9    1
     2    30    29    1
     3     8     7    1
     4     9     7   ar
     5     9    11   ar
     6    12    11    1
     7     7     5   ar
     8    28    27    1
     9    29    27   ar
    10    29    31   ar
    11    11    13   ar
    12    32    31    1
    13    27    26   ar
    14    31    33   ar
    15     5     6    1
    16     5     4   ar
    17    13     4   ar
    18    13    14    1
    19     4     1    1
    20    17    16    1
    21    26    35   ar
    22    26     1    1
    23    33    35   ar
    24    33    34    1
    25    35     3    1
    26    16    18   ar
    27    16    15   ar
    28    19    18    1
    29     1    15    1
    30    18    20   ar
    31    40    37    1
    32    15    24   ar
    33     3    36    1
    34    37    38    1
    35    37    36    1
    36    37    39    1
    37    20    21    1
    38    20    22   ar
    39    24    25    1
    40    24    22   ar
    41    36    41    1
    42    22    23    1
    43    41    42    1
    44    41    43    2
    45     2    43    1
    46    43    44    1
    47    44    45    1
    48    44    46    1
    49    44    47    1
