@<TRIPOS>MOLECULE
1,2,3
 87 90 0 0 0
SMALL
GASTEIGER

@<TRIPOS>ATOM
      1 N           7.2289   10.6416   13.8194 N.pl3   1  UNL1        0.0000
      2 O           8.1335    9.3869   11.2312 O.3     1  UNL1        0.0000
      3 P           4.6471    9.7883   14.5095 P.3     1  UNL1        0.0000
      4 SI         11.1692    9.3345   14.3101 Si      1  UNL1        0.0000
      5 C           9.0125   10.3779   11.2387 C.ar    1  UNL1        0.0000
      6 C           9.7827   10.7059   10.0871 C.ar    1  UNL1        0.0000
      7 C          10.5668   11.8454   10.1100 C.ar    1  UNL1        0.0000
      8 H          11.1208   12.1066    9.2250 H       1  UNL1        0.0000
      9 C          10.6858   12.6779   11.2180 C.ar    1  UNL1        0.0000
     10 C          10.0402   12.2716   12.3722 C.ar    1  UNL1        0.0000
     11 H          10.1592   12.8337   13.2855 H       1  UNL1        0.0000
     12 C           9.2436   11.1387   12.4095 C.ar    1  UNL1        0.0000
     13 C           9.7774    9.7968    8.8605 C.3     1  UNL1        0.0000
     14 C          10.1439    8.3720    9.2967 C.3     1  UNL1        0.0000
     15 H           9.4907    8.0462   10.0994 H       1  UNL1        0.0000
     16 H          11.1718    8.3439    9.6517 H       1  UNL1        0.0000
     17 H          10.0457    7.6820    8.4601 H       1  UNL1        0.0000
     18 C           8.3840    9.8001    8.2270 C.3     1  UNL1        0.0000
     19 H           7.6578    9.4407    8.9536 H       1  UNL1        0.0000
     20 H           8.3539    9.1511    7.3531 H       1  UNL1        0.0000
     21 H           8.1045   10.8065    7.9179 H       1  UNL1        0.0000
     22 C          10.7822   10.2197    7.7821 C.3     1  UNL1        0.0000
     23 H          10.7628    9.4881    6.9759 H       1  UNL1        0.0000
     24 H          11.7943   10.2554    8.1785 H       1  UNL1        0.0000
     25 H          10.5277   11.1881    7.3565 H       1  UNL1        0.0000
     26 C          11.5412   13.9324   11.1324 C.3     1  UNL1        0.0000
     27 C          11.0110   14.8284   10.0038 C.3     1  UNL1        0.0000
     28 H          11.0532   14.3208    9.0443 H       1  UNL1        0.0000
     29 H          11.6031   15.7391    9.9338 H       1  UNL1        0.0000
     30 H           9.9756   15.1015   10.1986 H       1  UNL1        0.0000
     31 C          12.9947   13.5340   10.8401 C.3     1  UNL1        0.0000
     32 H          13.3673   12.8785   11.6246 H       1  UNL1        0.0000
     33 H          13.6284   14.4179   10.7961 H       1  UNL1        0.0000
     34 H          13.0749   13.0089    9.8923 H       1  UNL1        0.0000
     35 C          11.5223   14.7464   12.4293 C.3     1  UNL1        0.0000
     36 H          10.5079   15.0396   12.6906 H       1  UNL1        0.0000
     37 H          12.1130   15.6516   12.3006 H       1  UNL1        0.0000
     38 H          11.9531   14.1812   13.2526 H       1  UNL1        0.0000
     39 C           8.6900   10.6988   13.7517 C.3     1  UNL1        0.0000
     40 H           9.0418   11.4090   14.5134 H       1  UNL1        0.0000
     41 C           9.2680    9.3276   14.1410 C.3     1  UNL1        0.0000
     42 H           8.9607    8.5917   13.3920 H       1  UNL1        0.0000
     43 H           8.8100    9.0319   15.0900 H       1  UNL1        0.0000
     44 C          12.0615    9.2421   12.6273 C.3     1  UNL1        0.0000
     45 H          13.1330    9.1164   12.7562 H       1  UNL1        0.0000
     46 H          11.8979   10.1373   12.0365 H       1  UNL1        0.0000
     47 H          11.6981    8.4004   12.0457 H       1  UNL1        0.0000
     48 C          11.7580   10.8813   15.2709 C.3     1  UNL1        0.0000
     49 H          12.7835   10.7629   15.6084 H       1  UNL1        0.0000
     50 H          11.1457   11.0647   16.1495 H       1  UNL1        0.0000
     51 H          11.7222   11.7701   14.6505 H       1  UNL1        0.0000
     52 C          11.7219    7.8231   15.3470 C.3     1  UNL1        0.0000
     53 H          11.7150    6.9120   14.7581 H       1  UNL1        0.0000
     54 H          11.0854    7.6649   16.2120 H       1  UNL1        0.0000
     55 H          12.7361    7.9619   15.7082 H       1  UNL1        0.0000
     56 C           6.5944   11.6636   14.4325 C.ar    1  UNL1        0.0000
     57 C           7.1172   12.9602   14.6505 C.ar    1  UNL1        0.0000
     58 H           8.0872   13.2213   14.2556 H       1  UNL1        0.0000
     59 C           6.4000   13.9185   15.3302 C.ar    1  UNL1        0.0000
     60 H           6.8356   14.8984   15.4740 H       1  UNL1        0.0000
     61 C           5.1284   13.6565   15.8240 C.ar    1  UNL1        0.0000
     62 H           4.5812   14.4142   16.3639 H       1  UNL1        0.0000
     63 C           4.5703   12.4082   15.6112 C.ar    1  UNL1        0.0000
     64 H           3.5788   12.1931   15.9855 H       1  UNL1        0.0000
     65 C           5.2819   11.4258   14.9418 C.ar    1  UNL1        0.0000
     66 C           5.4854    8.6846   15.7067 C.ar    1  UNL1        0.0000
     67 C           6.4043    9.1379   16.6456 C.ar    1  UNL1        0.0000
     68 H           6.6328   10.1928   16.7063 H       1  UNL1        0.0000
     69 C           7.0231    8.2387   17.4973 C.ar    1  UNL1        0.0000
     70 H           7.7405    8.5946   18.2230 H       1  UNL1        0.0000
     71 C           6.7258    6.8882   17.4245 C.ar    1  UNL1        0.0000
     72 H           7.2104    6.1920   18.0934 H       1  UNL1        0.0000
     73 C           5.8088    6.4303   16.4912 C.ar    1  UNL1        0.0000
     74 H           5.5753    5.3771   16.4274 H       1  UNL1        0.0000
     75 C           5.1972    7.3225   15.6318 C.ar    1  UNL1        0.0000
     76 H           4.4817    6.9684   14.8999 H       1  UNL1        0.0000
     77 C           2.9530    9.8406   15.2007 C.ar    1  UNL1        0.0000
     78 C           2.5218    9.0788   16.2803 C.ar    1  UNL1        0.0000
     79 H           3.2128    8.4258   16.7932 H       1  UNL1        0.0000
     80 C           1.2088    9.1621   16.7120 C.ar    1  UNL1        0.0000
     81 H           0.8867    8.5688   17.5558 H       1  UNL1        0.0000
     82 C           0.3120   10.0018   16.0744 C.ar    1  UNL1        0.0000
     83 H          -0.7105   10.0645   16.4167 H       1  UNL1        0.0000
     84 C           0.7330   10.7638   14.9956 C.ar    1  UNL1        0.0000
     85 H           0.0399   11.4244   14.4945 H       1  UNL1        0.0000
     86 C           2.0401   10.6773   14.5589 C.ar    1  UNL1        0.0000
     87 H           2.3707   11.2698   13.7160 H       1  UNL1        0.0000
@<TRIPOS>BOND
     1    23    22    1
     2    20    18    1
     3    25    22    1
     4    22    24    1
     5    22    13    1
     6    21    18    1
     7    18    13    1
     8    18    19    1
     9    17    14    1
    10    13    14    1
    11    13     6    1
    12    28    27    1
    13     8     7    1
    14    14    16    1
    15    14    15    1
    16    34    31    1
    17    29    27    1
    18    27    30    1
    19    27    26    1
    20     6     7   ar
    21     6     5   ar
    22     7     9   ar
    23    33    31    1
    24    31    26    1
    25    31    32    1
    26    26     9    1
    27    26    35    1
    28     9    10   ar
    29     2     5    1
    30     5    12   ar
    31    46    44    1
    32    47    44    1
    33    37    35    1
    34    10    12   ar
    35    10    11    1
    36    12    39    1
    37    35    36    1
    38    35    38    1
    39    44    45    1
    40    44     4    1
    41    42    41    1
    42    87    86    1
    43    39     1    1
    44    39    41    1
    45    39    40    1
    46     1    56    1
    47    41     4    1
    48    41    43    1
    49    58    57    1
    50     4    48    1
    51     4    52    1
    52    56    57   ar
    53    56    65   ar
    54    85    84    1
    55     3    65    1
    56     3    77    1
    57     3    66    1
    58    86    84   ar
    59    86    77   ar
    60    57    59   ar
    61    51    48    1
    62    53    52    1
    63    76    75    1
    64    65    63   ar
    65    84    82   ar
    66    77    78   ar
    67    48    49    1
    68    48    50    1
    69    59    60    1
    70    59    61   ar
    71    52    55    1
    72    52    54    1
    73    63    61   ar
    74    63    64    1
    75    75    66   ar
    76    75    73   ar
    77    66    67   ar
    78    61    62    1
    79    82    83    1
    80    82    80   ar
    81    78    80   ar
    82    78    79    1
    83    74    73    1
    84    73    71   ar
    85    67    68    1
    86    67    69   ar
    87    80    81    1
    88    71    69   ar
    89    71    72    1
    90    69    70    1
