@<TRIPOS>MOLECULE
1,2,3,4,5,6
 41 41 0 0 0
SMALL
GASTEIGER

@<TRIPOS>ATOM
      1 N          -0.2547    4.0616   10.0212 N.3     1  UNL1        0.0000
      2 SI          0.4350    3.1609    8.7131 Si      1  UNL1        0.0000
      3 C          -1.0330    1.9653    8.5725 C.3     1  UNL1        0.0000
      4 C          -2.3951    2.4579    8.3689 C.3     1  UNL1        0.0000
      5 C          -1.1432    0.5891    8.8539 C.3     1  UNL1        0.0000
      6 C          -3.2740    1.3519    8.5113 C.2     1  UNL1        0.0000
      7 C          -2.7390    3.7493    7.6602 C.3     1  UNL1        0.0000
      8 H          -2.6100    3.6239    6.5810 H       1  UNL1        0.0000
      9 H          -3.7794    4.0286    7.8317 H       1  UNL1        0.0000
     10 H          -2.0852    4.5634    7.9826 H       1  UNL1        0.0000
     11 C          -2.4993    0.2101    8.7910 C.2     1  UNL1        0.0000
     12 C           0.0211   -0.3440    9.0027 C.3     1  UNL1        0.0000
     13 H           0.6838   -0.0275    9.8046 H       1  UNL1        0.0000
     14 H          -0.3161   -1.3551    9.2098 H       1  UNL1        0.0000
     15 H           0.6011   -0.3671    8.0793 H       1  UNL1        0.0000
     16 C          -3.0152   -1.1960    8.8452 C.3     1  UNL1        0.0000
     17 H          -4.0698   -1.2219    9.1073 H       1  UNL1        0.0000
     18 H          -2.4701   -1.7938    9.5713 H       1  UNL1        0.0000
     19 H          -2.9023   -1.6735    7.8694 H       1  UNL1        0.0000
     20 C          -4.7466    1.3911    8.2187 C.3     1  UNL1        0.0000
     21 H          -5.2617    0.5515    8.6805 H       1  UNL1        0.0000
     22 H          -5.1942    2.3136    8.5900 H       1  UNL1        0.0000
     23 H          -4.9264    1.3376    7.1426 H       1  UNL1        0.0000
     24 C           0.7812    4.0476    7.0398 C.3     1  UNL1        0.0000
     25 H          -0.0487    4.6502    6.6879 H       1  UNL1        0.0000
     26 H           1.0014    3.3164    6.2686 H       1  UNL1        0.0000
     27 H           1.6484    4.6958    7.1224 H       1  UNL1        0.0000
     28 C           2.1134    2.3178    9.1047 C.3     1  UNL1        0.0000
     29 H           2.9204    3.0419    9.0661 H       1  UNL1        0.0000
     30 H           2.1304    1.8629   10.0887 H       1  UNL1        0.0000
     31 H           2.3385    1.5470    8.3770 H       1  UNL1        0.0000
     32 C           0.1828    5.3694   10.4779 C.3     1  UNL1        0.0000
     33 C           1.6943    5.4268   10.7240 C.3     1  UNL1        0.0000
     34 H           1.9994    4.6060   11.3676 H       1  UNL1        0.0000
     35 H           1.9700    6.3676   11.1952 H       1  UNL1        0.0000
     36 H           2.2225    5.3360    9.7795 H       1  UNL1        0.0000
     37 C          -0.2175    6.4845    9.4995 C.3     1  UNL1        0.0000
     38 H          -1.2927    6.4653    9.3315 H       1  UNL1        0.0000
     39 H           0.2909    6.3416    8.5508 H       1  UNL1        0.0000
     40 H           0.0539    7.4578    9.9027 H       1  UNL1        0.0000
     41 H          -0.3211    5.5807   11.4370 H       1  UNL1        0.0000
@<TRIPOS>BOND
     1    26    24    1
     2     8     7    1
     3    25    24    1
     4    24    27    1
     5    24     2    1
     6    23    20    1
     7     7     9    1
     8     7    10    1
     9     7     4    1
    10    19    16    1
    11    15    12    1
    12    20     6    1
    13    20    22    1
    14    20    21    1
    15     4     6    1
    16     4     3    1
    17    31    28    1
    18     6    11    2
    19    39    37    1
    20     3     2    1
    21     3     5    1
    22     2    28    1
    23     2     1    1
    24    11    16    1
    25    11     5    1
    26    16    17    1
    27    16    18    1
    28     5    12    1
    29    12    14    1
    30    12    13    1
    31    29    28    1
    32    28    30    1
    33    38    37    1
    34    37    40    1
    35    37    32    1
    36    36    33    1
    37     1    32    1
    38    32    33    1
    39    32    41    1
    40    33    35    1
    41    33    34    1
