@<TRIPOS>MOLECULE
1,2,3,4,5,7
 41 41 0 0 0
SMALL
GASTEIGER

@<TRIPOS>ATOM
      1 N          -3.5530    4.0604   11.0445 N.3     1  UNL1        0.0000
      2 SI         -4.2422    3.1590   12.3524 Si      1  UNL1        0.0000
      3 C          -2.7742    1.9632   12.4923 C.3     1  UNL1        0.0000
      4 C          -1.4118    2.4557   12.6948 C.3     1  UNL1        0.0000
      5 C          -0.5335    1.3488   12.5549 C.2     1  UNL1        0.0000
      6 C          -1.3088    0.2069   12.2780 C.2     1  UNL1        0.0000
      7 C          -2.6647    0.5864   12.2144 C.3     1  UNL1        0.0000
      8 C          -1.0676    3.7472   13.4031 C.3     1  UNL1        0.0000
      9 C           0.9390    1.3880   12.8471 C.3     1  UNL1        0.0000
     10 C          -0.7934   -1.1994   12.2254 C.3     1  UNL1        0.0000
     11 C          -3.8295   -0.3464   12.0676 C.3     1  UNL1        0.0000
     12 C          -4.5877    4.0454   14.0261 C.3     1  UNL1        0.0000
     13 C          -5.9208    2.3164   11.9610 C.3     1  UNL1        0.0000
     14 C          -3.9907    5.3682   10.5882 C.3     1  UNL1        0.0000
     15 C          -5.5021    5.4256   10.3423 C.3     1  UNL1        0.0000
     16 C          -3.5902    6.4832   11.5667 C.3     1  UNL1        0.0000
     17 H          -1.1957    3.6218   14.4824 H       1  UNL1        0.0000
     18 H          -0.0273    4.0268   13.2308 H       1  UNL1        0.0000
     19 H          -1.7217    4.5612   13.0812 H       1  UNL1        0.0000
     20 H           1.4539    0.5475   12.3864 H       1  UNL1        0.0000
     21 H           1.3868    2.3100   12.4742 H       1  UNL1        0.0000
     22 H           1.1191    1.3362   13.9233 H       1  UNL1        0.0000
     23 H           0.2609   -1.2260   11.9623 H       1  UNL1        0.0000
     24 H          -1.3393   -1.7982   11.5006 H       1  UNL1        0.0000
     25 H          -0.9055   -1.6755   13.2020 H       1  UNL1        0.0000
     26 H          -4.4928   -0.0304   11.2659 H       1  UNL1        0.0000
     27 H          -3.4930   -1.3579   11.8613 H       1  UNL1        0.0000
     28 H          -4.4088   -0.3683   12.9915 H       1  UNL1        0.0000
     29 H          -3.7576    4.6478   14.3778 H       1  UNL1        0.0000
     30 H          -4.8077    3.3140   14.7972 H       1  UNL1        0.0000
     31 H          -5.4549    4.6937   13.9440 H       1  UNL1        0.0000
     32 H          -6.7276    3.0406   11.9995 H       1  UNL1        0.0000
     33 H          -5.9379    1.8613   10.9771 H       1  UNL1        0.0000
     34 H          -6.1461    1.5458   12.6889 H       1  UNL1        0.0000
     35 H          -3.4869    5.5797    9.6290 H       1  UNL1        0.0000
     36 H          -5.8073    4.6048    9.6986 H       1  UNL1        0.0000
     37 H          -5.7780    6.3664    9.8713 H       1  UNL1        0.0000
     38 H          -6.0302    5.3346   11.2869 H       1  UNL1        0.0000
     39 H          -2.5151    6.4641   11.7345 H       1  UNL1        0.0000
     40 H          -4.0984    6.3400   12.5155 H       1  UNL1        0.0000
     41 H          -3.8619    7.4565   11.1638 H       1  UNL1        0.0000
@<TRIPOS>BOND
     1    35    14    1
     2    36    15    1
     3    37    15    1
     4    15    14    1
     5    15    38    1
     6    14     1    1
     7    14    16    1
     8    33    13    1
     9     1     2    1
    10    41    16    1
    11    26    11    1
    12    24    10    1
    13    16    39    1
    14    16    40    1
    15    27    11    1
    16    13    32    1
    17    13     2    1
    18    13    34    1
    19    23    10    1
    20    11     7    1
    21    11    28    1
    22     7     6    1
    23     7     3    1
    24    10     6    1
    25    10    25    1
    26     6     5    2
    27     2     3    1
    28     2    12    1
    29    20     9    1
    30    21     9    1
    31     3     4    1
    32     5     4    1
    33     5     9    1
    34     4     8    1
    35     9    22    1
    36    19     8    1
    37    18     8    1
    38     8    17    1
    39    31    12    1
    40    12    29    1
    41    12    30    1
