@<TRIPOS>MOLECULE
2,3,5,7,8
 41 41 0 0 0
SMALL
GASTEIGER

@<TRIPOS>ATOM
      1 SI          8.1518    4.6894    6.7622 Si      1  UNL1        0.0000
      2 SI         11.9979    4.9043    3.5519 Si      1  UNL1        0.0000
      3 N          10.5726    4.5752    2.6092 N.3     1  UNL1        0.0000
      4 C          10.9436    4.7744    5.1311 C.3     1  UNL1        0.0000
      5 C          10.5010    5.9517    5.8155 C.2     1  UNL1        0.0000
      6 C           9.4075    6.0704    6.6117 C.2     1  UNL1        0.0000
      7 C           9.0243    3.3414    5.7680 C.3     1  UNL1        0.0000
      8 C          10.3128    3.5079    5.2999 C.3     1  UNL1        0.0000
      9 C           6.4450    5.1142    5.9891 C.3     1  UNL1        0.0000
     10 C           7.8369    4.1305    8.5633 C.3     1  UNL1        0.0000
     11 C          13.3964    3.5959    3.4756 C.3     1  UNL1        0.0000
     12 C          12.7307    6.6575    3.3331 C.3     1  UNL1        0.0000
     13 C          10.4448    4.3542    1.1816 C.3     1  UNL1        0.0000
     14 C          10.1778    2.8545    0.9544 C.3     1  UNL1        0.0000
     15 C          11.7229    4.7554    0.4350 C.3     1  UNL1        0.0000
     16 C           9.2789    5.1884    0.6203 C.3     1  UNL1        0.0000
     17 H          11.1558    6.8161    5.7078 H       1  UNL1        0.0000
     18 H           9.2607    7.0116    7.1263 H       1  UNL1        0.0000
     19 H           8.6422    2.3217    5.8051 H       1  UNL1        0.0000
     20 H          10.8575    2.6336    4.9249 H       1  UNL1        0.0000
     21 H           6.5422    5.6514    5.0435 H       1  UNL1        0.0000
     22 H           5.8582    5.7359    6.6596 H       1  UNL1        0.0000
     23 H           5.8682    4.2118    5.7962 H       1  UNL1        0.0000
     24 H           8.7504    3.8107    9.0532 H       1  UNL1        0.0000
     25 H           7.1328    3.3061    8.5990 H       1  UNL1        0.0000
     26 H           7.4171    4.9438    9.1446 H       1  UNL1        0.0000
     27 H          13.9499    3.5700    4.4084 H       1  UNL1        0.0000
     28 H          14.1037    3.8266    2.6867 H       1  UNL1        0.0000
     29 H          13.0102    2.5980    3.2919 H       1  UNL1        0.0000
     30 H          11.9398    7.3940    3.2129 H       1  UNL1        0.0000
     31 H          13.3739    6.7109    2.4614 H       1  UNL1        0.0000
     32 H          13.3293    6.9409    4.1927 H       1  UNL1        0.0000
     33 H          11.0359    2.2752    1.2917 H       1  UNL1        0.0000
     34 H          10.0074    2.6513   -0.0999 H       1  UNL1        0.0000
     35 H           9.2987    2.5440    1.5230 H       1  UNL1        0.0000
     36 H          11.9269    5.8109    0.5910 H       1  UNL1        0.0000
     37 H          11.6017    4.5755   -0.6303 H       1  UNL1        0.0000
     38 H          12.5685    4.1750    0.7914 H       1  UNL1        0.0000
     39 H           9.4471    6.2448    0.8367 H       1  UNL1        0.0000
     40 H           8.3297    4.8818    1.0677 H       1  UNL1        0.0000
     41 H           9.2111    5.0579   -0.4578 H       1  UNL1        0.0000
@<TRIPOS>BOND
     1    37    15    1
     2    41    16    1
     3    34    14    1
     4    15    36    1
     5    15    38    1
     6    15    13    1
     7    16    39    1
     8    16    40    1
     9    16    13    1
    10    14    13    1
    11    14    33    1
    12    14    35    1
    13    13     3    1
    14    31    12    1
    15     3     2    1
    16    28    11    1
    17    30    12    1
    18    29    11    1
    19    12     2    1
    20    12    32    1
    21    11     2    1
    22    11    27    1
    23     2     4    1
    24    20     8    1
    25    21     9    1
    26     4     8    1
    27     4     5    1
    28     8     7    1
    29    17     5    1
    30     7    19    1
    31     7     1    1
    32    23     9    1
    33     5     6    2
    34     9    22    1
    35     9     1    1
    36     6     1    1
    37     6    18    1
    38     1    10    1
    39    10    25    1
    40    10    24    1
    41    10    26    1
