@<TRIPOS>MOLECULE
1,2,3,4
 90 92 0 0 0
SMALL
GASTEIGER

@<TRIPOS>ATOM
      1 O           1.8643    2.1638    5.8331 O.3     1  UNL1       -0.2873
      2 O           1.0758    4.6962    7.8856 O.3     1  UNL1       -0.2873
      3 N           2.4680    4.0629    3.9829 N.3     1  UNL1       -0.2956
      4 N           2.7205    5.7255    5.7763 N.3     1  UNL1       -0.2956
      5 C           2.4219    1.3210    4.9772 C.ar    1  UNL1        0.1870
      6 C           2.9308    0.0659    5.4169 C.ar    1  UNL1        0.0052
      7 C           3.4274   -0.8262    4.4872 C.ar    1  UNL1       -0.0507
      8 H           3.7862   -1.7811    4.8301 H       1  UNL1        0.0625
      9 C           3.4960   -0.5589    3.1226 C.ar    1  UNL1       -0.0412
     10 C           3.0884    0.6970    2.7154 C.ar    1  UNL1       -0.0500
     11 H           3.1620    0.9889    1.6789 H       1  UNL1        0.0625
     12 C           2.5709    1.6279    3.6047 C.ar    1  UNL1        0.0138
     13 C           2.1235    4.9870    8.6432 C.ar    1  UNL1        0.1870
     14 C           2.3155    4.4416    9.9432 C.ar    1  UNL1        0.0052
     15 C           3.4689    4.7586   10.6357 C.ar    1  UNL1       -0.0507
     16 H           3.6201    4.3206   11.6072 H       1  UNL1        0.0625
     17 C           4.4516    5.6213   10.1573 C.ar    1  UNL1       -0.0412
     18 C           4.2122    6.2222    8.9347 C.ar    1  UNL1       -0.0500
     19 H           4.9043    6.9438    8.5280 H       1  UNL1        0.0625
     20 C           3.0762    5.9311    8.1983 C.ar    1  UNL1        0.0138
     21 C           2.2035    2.9811    3.0391 C.3     1  UNL1        0.0278
     22 H           2.7789    3.1396    2.1091 H       1  UNL1        0.0477
     23 H           1.1397    3.0187    2.7844 H       1  UNL1        0.0477
     24 C           3.8718    4.0908    4.3888 C.3     1  UNL1        0.0121
     25 H           4.4946    4.4853    3.5686 H       1  UNL1        0.0439
     26 H           4.2061    3.0760    4.6080 H       1  UNL1        0.0439
     27 C           3.9736    4.9761    5.6363 C.3     1  UNL1        0.0121
     28 H           4.1137    4.3713    6.5365 H       1  UNL1        0.0439
     29 H           4.8259    5.6712    5.5512 H       1  UNL1        0.0439
     30 C           2.1527    5.3778    3.4320 C.3     1  UNL1        0.0121
     31 H           1.0903    5.4049    3.1753 H       1  UNL1        0.0439
     32 H           2.7436    5.5705    2.5192 H       1  UNL1        0.0439
     33 C           2.4796    6.4256    4.5153 C.3     1  UNL1        0.0121
     34 H           3.3680    7.0168    4.2341 H       1  UNL1        0.0439
     35 H           1.6416    7.1121    4.6484 H       1  UNL1        0.0439
     36 C           2.8362    6.6580    6.9007 C.3     1  UNL1        0.0278
     37 H           1.9037    7.2272    6.9689 H       1  UNL1        0.0477
     38 H           3.6598    7.3699    6.7199 H       1  UNL1        0.0477
     39 C           2.9415   -0.2680    6.9050 C.3     1  UNL1       -0.0090
     40 C           3.5942   -1.6188    7.2207 C.3     1  UNL1       -0.0559
     41 H           3.0452   -2.4409    6.7671 H       1  UNL1        0.0238
     42 H           3.5901   -1.7712    8.2986 H       1  UNL1        0.0238
     43 H           4.6278   -1.6468    6.8833 H       1  UNL1        0.0238
     44 C           1.4971   -0.3132    7.4170 C.3     1  UNL1       -0.0559
     45 H           1.0335    0.6593    7.2751 H       1  UNL1        0.0238
     46 H           1.4741   -0.5646    8.4755 H       1  UNL1        0.0238
     47 H           0.9320   -1.0646    6.8672 H       1  UNL1        0.0238
     48 C           3.7394    0.8157    7.6458 C.3     1  UNL1       -0.0559
     49 H           4.7539    0.8630    7.2531 H       1  UNL1        0.0238
     50 H           3.7944    0.5864    8.7084 H       1  UNL1        0.0238
     51 H           3.2704    1.7896    7.5215 H       1  UNL1        0.0238
     52 C           4.0302   -1.6198    2.1730 C.3     1  UNL1       -0.0127
     53 C           5.4790   -1.9588    2.5513 C.3     1  UNL1       -0.0560
     54 H           5.5407   -2.3496    3.5630 H       1  UNL1        0.0238
     55 H           6.1002   -1.0675    2.4926 H       1  UNL1        0.0238
     56 H           5.8815   -2.7071    1.8712 H       1  UNL1        0.0238
     57 C           4.0141   -1.1614    0.7122 C.3     1  UNL1       -0.0560
     58 H           4.3812   -1.9634    0.0744 H       1  UNL1        0.0238
     59 H           4.6571   -0.2964    0.5669 H       1  UNL1        0.0238
     60 H           3.0046   -0.9121    0.3941 H       1  UNL1        0.0238
     61 C           3.1588   -2.8786    2.2852 C.3     1  UNL1       -0.0560
     62 H           3.1822   -3.2857    3.2920 H       1  UNL1        0.0238
     63 H           3.5124   -3.6456    1.5987 H       1  UNL1        0.0238
     64 H           2.1262   -2.6414    2.0383 H       1  UNL1        0.0238
     65 C           1.2329    3.5800   10.5829 C.3     1  UNL1       -0.0090
     66 C           1.5836    3.1022   11.9970 C.3     1  UNL1       -0.0559
     67 H           2.4736    2.4769   11.9947 H       1  UNL1        0.0238
     68 H           0.7586    2.5067   12.3849 H       1  UNL1        0.0238
     69 H           1.7356    3.9402   12.6734 H       1  UNL1        0.0238
     70 C           0.9803    2.3370    9.7248 C.3     1  UNL1       -0.0559
     71 H           0.7293    2.6207    8.7024 H       1  UNL1        0.0238
     72 H           0.1632    1.7509   10.1430 H       1  UNL1        0.0238
     73 H           1.8738    1.7189    9.7050 H       1  UNL1        0.0238
     74 C          -0.0402    4.4310   10.6811 C.3     1  UNL1       -0.0559
     75 H           0.1319    5.2878   11.3300 H       1  UNL1        0.0238
     76 H          -0.8608    3.8448   11.0915 H       1  UNL1        0.0238
     77 H          -0.3147    4.7947    9.6965 H       1  UNL1        0.0238
     78 C           5.6971    5.8796   10.9908 C.3     1  UNL1       -0.0127
     79 C           6.4247    4.5497   11.2339 C.3     1  UNL1       -0.0560
     80 H           7.3301    4.7153   11.8148 H       1  UNL1        0.0238
     81 H           6.6999    4.0943   10.2849 H       1  UNL1        0.0238
     82 H           5.7956    3.8497   11.7760 H       1  UNL1        0.0238
     83 C           5.2901    6.4999   12.3347 C.3     1  UNL1       -0.0560
     84 H           4.6458    5.8310   12.8980 H       1  UNL1        0.0238
     85 H           4.7521    7.4310   12.1695 H       1  UNL1        0.0238
     86 H           6.1723    6.7110   12.9361 H       1  UNL1        0.0238
     87 C           6.6751    6.8359   10.3025 C.3     1  UNL1       -0.0560
     88 H           7.5548    6.9709   10.9291 H       1  UNL1        0.0238
     89 H           6.2216    7.8118   10.1460 H       1  UNL1        0.0238
     90 H           7.0011    6.4361    9.3451 H       1  UNL1        0.0238
@<TRIPOS>BOND
     1    58    57    1
     2    60    57    1
     3    59    57    1
     4    57    52    1
     5    63    61    1
     6    11    10    1
     7    56    53    1
     8    64    61    1
     9    22    21    1
    10    52    61    1
    11    52    53    1
    12    52     9    1
    13    61    62    1
    14    55    53    1
    15    32    30    1
    16    53    54    1
    17    10     9   ar
    18    10    12   ar
    19    23    21    1
    20    21    12    1
    21    21     3    1
    22     9     7   ar
    23    31    30    1
    24    30     3    1
    25    30    33    1
    26    25    24    1
    27    12     5   ar
    28     3    24    1
    29    34    33    1
    30    24    26    1
    31    24    27    1
    32     7     8    1
    33     7     6   ar
    34    33    35    1
    35    33     4    1
    36     5     6   ar
    37     5     1    1
    38     6    39    1
    39    29    27    1
    40    27     4    1
    41    27    28    1
    42     4    36    1
    43    38    36    1
    44    41    40    1
    45    47    44    1
    46    43    40    1
    47    36    37    1
    48    36    20    1
    49    39    40    1
    50    39    44    1
    51    39    48    1
    52    40    42    1
    53    49    48    1
    54    45    44    1
    55    44    46    1
    56    51    48    1
    57    48    50    1
    58     2    13    1
    59    20    13   ar
    60    20    18   ar
    61    19    18    1
    62    13    14   ar
    63    71    70    1
    64    18    17   ar
    65    90    87    1
    66    77    74    1
    67    73    70    1
    68    70    72    1
    69    70    65    1
    70    14    65    1
    71    14    15   ar
    72    89    87    1
    73    17    15   ar
    74    17    78    1
    75    81    79    1
    76    87    88    1
    77    87    78    1
    78    65    74    1
    79    65    66    1
    80    15    16    1
    81    74    76    1
    82    74    75    1
    83    78    79    1
    84    78    83    1
    85    79    82    1
    86    79    80    1
    87    67    66    1
    88    66    68    1
    89    66    69    1
    90    85    83    1
    91    83    84    1
    92    83    86    1
