@<TRIPOS>MOLECULE
3,6,15,30
 120 121 0 0 0
SMALL
GASTEIGER

@<TRIPOS>ATOM
      1 SI          8.7319    2.8467   -4.3433 Si      1  UNL1        0.0000
      2 SI         -2.1335    8.0230    5.7208 Si      1  UNL1        0.0000
      3 O           3.4390    4.1272   -0.2550 O.3     1  UNL1        0.0000
      4 O          -2.3530    7.2921    4.2637 O.3     1  UNL1        0.0000
      5 O           7.3681    2.3230   -3.5967 O.3     1  UNL1        0.0000
      6 N           4.5526    6.4783   -0.2265 N.3     1  UNL1        0.0000
      7 C          -1.6616    5.6264    2.7464 C.ar    1  UNL1        0.0000
      8 H          -2.4913    5.0514    3.1215 H       1  UNL1        0.0000
      9 C          -3.8382    7.7222    6.5547 C.3     1  UNL1        0.0000
     10 H          -4.4803    8.5766    6.3179 H       1  UNL1        0.0000
     11 C          -1.1428    3.7803   -0.3024 C.3     1  UNL1        0.0000
     12 H          -0.2677    4.2404   -0.7510 H       1  UNL1        0.0000
     13 H          -2.0187    4.3688   -0.5704 H       1  UNL1        0.0000
     14 H          -1.2564    2.7811   -0.7168 H       1  UNL1        0.0000
     15 N           2.5319    7.5928    0.7784 N.3     1  UNL1        0.0000
     16 C           3.5256    8.5591    0.3528 C.3     1  UNL1        0.0000
     17 H           3.5926    9.3975    1.0532 H       1  UNL1        0.0000
     18 H           3.2443    8.9365   -0.6398 H       1  UNL1        0.0000
     19 C           0.4587    7.1931    1.9245 C.ar    1  UNL1        0.0000
     20 C           3.2849    1.3840   -1.0985 C.3     1  UNL1        0.0000
     21 C           6.4175    4.1310   -2.3307 C.ar    1  UNL1        0.0000
     22 H           7.2069    4.8069   -2.6155 H       1  UNL1        0.0000
     23 C           5.3852    4.5886   -1.4923 C.ar    1  UNL1        0.0000
     24 C           5.3876    1.9682   -2.3840 C.ar    1  UNL1        0.0000
     25 H           5.4436    0.9632   -2.7667 H       1  UNL1        0.0000
     26 C          -0.8224    5.1118    1.7798 C.ar    1  UNL1        0.0000
     27 C          -1.0041    3.7081    1.2241 C.3     1  UNL1        0.0000
     28 C           1.5494    8.0149    1.4979 C.3     1  UNL1        0.0000
     29 H           1.5182    9.0615    1.8034 H       1  UNL1        0.0000
     30 O           1.1337    5.4946    0.4490 O.3     1  UNL1        0.0000
     31 C           4.3721    2.3502   -1.5434 C.ar    1  UNL1        0.0000
     32 C           9.3976    1.1511   -4.9443 C.3     1  UNL1        0.0000
     33 H           8.5474    0.6306   -5.3984 H       1  UNL1        0.0000
     34 C           6.4167    2.8392   -2.7841 C.ar    1  UNL1        0.0000
     35 C           7.7105    5.3050   -5.4989 C.3     1  UNL1        0.0000
     36 H           7.5044    5.8863   -6.3974 H       1  UNL1        0.0000
     37 H           8.4058    5.8728   -4.8850 H       1  UNL1        0.0000
     38 H           6.7768    5.1870   -4.9531 H       1  UNL1        0.0000
     39 C           9.8728    3.8393   -3.1471 C.3     1  UNL1        0.0000
     40 H           9.4854    4.8629   -3.0829 H       1  UNL1        0.0000
     41 C           5.4339    5.9209   -1.0060 C.3     1  UNL1        0.0000
     42 H           6.3102    6.5025   -1.2984 H       1  UNL1        0.0000
     43 C          -2.2511    3.0082    1.7741 C.3     1  UNL1        0.0000
     44 H          -2.1890    2.8780    2.8516 H       1  UNL1        0.0000
     45 H          -2.3312    2.0212    1.3232 H       1  UNL1        0.0000
     46 H          -3.1543    3.5632    1.5312 H       1  UNL1        0.0000
     47 C           8.2857    3.9379   -5.8708 C.3     1  UNL1        0.0000
     48 H           9.1938    4.1170   -6.4548 H       1  UNL1        0.0000
     49 C           0.2875    5.8958    1.3609 C.ar    1  UNL1        0.0000
     50 C          -0.4408    7.6839    2.8751 C.ar    1  UNL1        0.0000
     51 H          -0.2990    8.6677    3.2924 H       1  UNL1        0.0000
     52 C           0.2249    2.8802    1.6224 C.3     1  UNL1        0.0000
     53 H           1.1435    3.3574    1.2891 H       1  UNL1        0.0000
     54 H           0.1657    1.8863    1.1858 H       1  UNL1        0.0000
     55 H           0.2714    2.7822    2.7051 H       1  UNL1        0.0000
     56 C          11.3145    3.9499   -3.6422 C.3     1  UNL1        0.0000
     57 H          11.8943    4.5968   -2.9849 H       1  UNL1        0.0000
     58 H          11.3500    4.3626   -4.6475 H       1  UNL1        0.0000
     59 H          11.7906    2.9730   -3.6538 H       1  UNL1        0.0000
     60 C          -1.8285    9.9092    5.4821 C.3     1  UNL1        0.0000
     61 H          -0.8103   10.0609    5.1077 H       1  UNL1        0.0000
     62 C           4.8518    7.8064    0.2715 C.3     1  UNL1        0.0000
     63 H           5.5813    8.3303   -0.3576 H       1  UNL1        0.0000
     64 H           5.2366    7.7009    1.2929 H       1  UNL1        0.0000
     65 C          -1.4813    6.8947    3.3072 C.ar    1  UNL1        0.0000
     66 C           4.3399    3.7040   -1.0764 C.ar    1  UNL1        0.0000
     67 C           1.9195    1.9354   -1.5278 C.3     1  UNL1        0.0000
     68 H           1.7359    2.9033   -1.0717 H       1  UNL1        0.0000
     69 H           1.1281    1.2549   -1.2220 H       1  UNL1        0.0000
     70 H           1.8820    2.0447   -2.6106 H       1  UNL1        0.0000
     71 C           9.8948    0.2686   -3.8008 C.3     1  UNL1        0.0000
     72 H          10.1252   -0.7327   -4.1634 H       1  UNL1        0.0000
     73 H           9.1391    0.1875   -3.0243 H       1  UNL1        0.0000
     74 H          10.8003    0.6808   -3.3623 H       1  UNL1        0.0000
     75 C           3.3545    1.2445    0.4289 C.3     1  UNL1        0.0000
     76 H           3.2428    2.2098    0.9149 H       1  UNL1        0.0000
     77 H           4.3148    0.8223    0.7188 H       1  UNL1        0.0000
     78 H           2.5654    0.5842    0.7815 H       1  UNL1        0.0000
     79 C           3.4448   -0.0103   -1.7128 C.3     1  UNL1        0.0000
     80 H           3.3874    0.0277   -2.7983 H       1  UNL1        0.0000
     81 H           2.6401   -0.6499   -1.3560 H       1  UNL1        0.0000
     82 H           4.3878   -0.4649   -1.4196 H       1  UNL1        0.0000
     83 C           9.8529    3.2698   -1.7278 C.3     1  UNL1        0.0000
     84 H          10.4314    3.9032   -1.0556 H       1  UNL1        0.0000
     85 H          10.2842    2.2733   -1.7068 H       1  UNL1        0.0000
     86 H           8.8363    3.2072   -1.3468 H       1  UNL1        0.0000
     87 C          -2.7843   10.4914    4.4405 C.3     1  UNL1        0.0000
     88 H          -2.5662   11.5440    4.2636 H       1  UNL1        0.0000
     89 H          -3.8138   10.4120    4.7809 H       1  UNL1        0.0000
     90 H          -2.6991    9.9580    3.4969 H       1  UNL1        0.0000
     91 C          -1.9462   10.6918    6.7885 C.3     1  UNL1        0.0000
     92 H          -1.7213   11.7452    6.6262 H       1  UNL1        0.0000
     93 H          -1.2565   10.3062    7.5352 H       1  UNL1        0.0000
     94 H          -2.9561   10.6204    7.1841 H       1  UNL1        0.0000
     95 C          -0.6957    5.6860    6.4991 C.3     1  UNL1        0.0000
     96 H           0.1057    5.2229    7.0738 H       1  UNL1        0.0000
     97 H          -0.5581    5.4239    5.4520 H       1  UNL1        0.0000
     98 H          -1.6408    5.2667    6.8347 H       1  UNL1        0.0000
     99 C          -0.6733    7.2051    6.6755 C.3     1  UNL1        0.0000
    100 H          -0.7907    7.4136    7.7435 H       1  UNL1        0.0000
    101 C          -3.7257    7.6539    8.0768 C.3     1  UNL1        0.0000
    102 H          -4.7141    7.5784    8.5286 H       1  UNL1        0.0000
    103 H          -3.2367    8.5391    8.4741 H       1  UNL1        0.0000
    104 H          -3.1506    6.7824    8.3791 H       1  UNL1        0.0000
    105 C           7.2911    3.2094   -6.7751 C.3     1  UNL1        0.0000
    106 H           7.0370    3.8215   -7.6401 H       1  UNL1        0.0000
    107 H           6.3755    2.9947   -6.2285 H       1  UNL1        0.0000
    108 H           7.7020    2.2689   -7.1316 H       1  UNL1        0.0000
    109 C           0.7002    7.7379    6.2613 C.3     1  UNL1        0.0000
    110 H           1.4811    7.2659    6.8560 H       1  UNL1        0.0000
    111 H           0.7671    8.8120    6.4129 H       1  UNL1        0.0000
    112 H           0.9014    7.5219    5.2145 H       1  UNL1        0.0000
    113 C          -4.5473    6.4728    6.0346 C.3     1  UNL1        0.0000
    114 H          -5.5295    6.3736    6.4954 H       1  UNL1        0.0000
    115 H          -3.9718    5.5800    6.2657 H       1  UNL1        0.0000
    116 H          -4.6733    6.5275    4.9577 H       1  UNL1        0.0000
    117 C          10.4812    1.2732   -6.0117 C.3     1  UNL1        0.0000
    118 H          10.7762    0.2867   -6.3673 H       1  UNL1        0.0000
    119 H          11.3648    1.7641   -5.6134 H       1  UNL1        0.0000
    120 H          10.1292    1.8487   -6.8632 H       1  UNL1        0.0000
@<TRIPOS>BOND
     1   106   105    1
     2   108   105    1
     3   120   117    1
     4   105   107    1
     5   105    47    1
     6    48    47    1
     7    36    35    1
     8   118   117    1
     9   117   119    1
    10   117    32    1
    11    47    35    1
    12    47     1    1
    13    35    38    1
    14    35    37    1
    15    33    32    1
    16    32     1    1
    17    32    71    1
    18    58    56    1
    19     1     5    1
    20     1    39    1
    21    72    71    1
    22    71    74    1
    23    71    73    1
    24    59    56    1
    25    56    39    1
    26    56    57    1
    27     5    34    1
    28    39    40    1
    29    39    83    1
    30    80    79    1
    31    34    24   ar
    32    34    21   ar
    33    25    24    1
    34    22    21    1
    35    70    67    1
    36    24    31   ar
    37    21    23   ar
    38    83    85    1
    39    83    86    1
    40    83    84    1
    41    79    82    1
    42    79    81    1
    43    79    20    1
    44    31    20    1
    45    31    66   ar
    46    67    69    1
    47    67    20    1
    48    67    68    1
    49    23    66   ar
    50    23    41    1
    51    42    41    1
    52    20    75    1
    53    66     3    1
    54    41     6    1
    55    12    11    1
    56    14    11    1
    57    18    16    1
    58    13    11    1
    59    63    62    1
    60    11    27    1
    61     6    62    1
    62    62    16    1
    63    62    64    1
    64    16    15    1
    65    16    17    1
    66    75    77    1
    67    75    78    1
    68    75    76    1
    69    30    49    1
    70    15    28    1
    71    54    52    1
    72    27    52    1
    73    27    43    1
    74    27    26    1
    75    53    52    1
    76    45    43    1
    77    49    26   ar
    78    49    19   ar
    79    28    29    1
    80    28    19    1
    81    46    43    1
    82    52    55    1
    83    43    44    1
    84    26     7   ar
    85    19    50   ar
    86     7     8    1
    87     7    65   ar
    88    50    51    1
    89    50    65   ar
    90    65     4    1
    91    90    87    1
    92    88    87    1
    93     4     2    1
    94    87    89    1
    95    87    60    1
    96   116   113    1
    97    61    60    1
    98   112   109    1
    99    97    95    1
   100    60     2    1
   101    60    91    1
   102     2     9    1
   103     2    99    1
   104   113   115    1
   105   113   114    1
   106   113     9    1
   107   109   111    1
   108   109    99    1
   109   109   110    1
   110    10     9    1
   111    95    99    1
   112    95    98    1
   113    95    96    1
   114     9   101    1
   115    92    91    1
   116    99   100    1
   117    91    94    1
   118    91    93    1
   119   101   104    1
   120   101   103    1
   121   101   102    1
