@<TRIPOS>MOLECULE
1,2,4,5
 97 100 0 0 0
SMALL
GASTEIGER

@<TRIPOS>ATOM
      1 N          12.5623    2.7035   12.0302 N.pl3   1  UNL1       -0.2367
      2 N          11.1870    5.8281   12.9894 N.pl3   1  UNL1       -0.2367
      3 O          13.7035    4.9694   12.8976 O.3     1  UNL1       -0.4522
      4 O          11.7200    3.2720    9.4595 O.3     1  UNL1       -0.2872
      5 O           9.8022    3.8361   11.7044 O.3     1  UNL1       -0.2872
      6 C          13.2328    4.0910   13.8653 C.ar    1  UNL1        0.1510
      7 C          12.6922    2.8747   13.4086 C.ar    1  UNL1        0.0907
      8 C          12.2300    1.9549   14.3494 C.ar    1  UNL1       -0.0355
      9 H          11.7654    1.0418   14.0084 H       1  UNL1        0.0638
     10 C          12.3058    2.2336   15.7019 C.ar    1  UNL1       -0.0597
     11 H          11.9303    1.5171   16.4163 H       1  UNL1        0.0618
     12 C          12.8481    3.4291   16.1388 C.ar    1  UNL1       -0.0582
     13 H          12.9064    3.6477   17.1937 H       1  UNL1        0.0619
     14 C          13.3114    4.3593   15.2216 C.ar    1  UNL1       -0.0174
     15 H          13.7264    5.2993   15.5553 H       1  UNL1        0.0655
     16 C          13.5078    6.3150   13.2080 C.ar    1  UNL1        0.1510
     17 C          14.5674    7.1648   13.4529 C.ar    1  UNL1       -0.0174
     18 H          15.5758    6.7831   13.4125 H       1  UNL1        0.0655
     19 C          14.3154    8.4991   13.7392 C.ar    1  UNL1       -0.0582
     20 H          15.1392    9.1705   13.9242 H       1  UNL1        0.0619
     21 C          13.0135    8.9672   13.7817 C.ar    1  UNL1       -0.0597
     22 H          12.8235   10.0076   13.9982 H       1  UNL1        0.0618
     23 C          11.9479    8.1143   13.5468 C.ar    1  UNL1       -0.0355
     24 H          10.9340    8.4865   13.5580 H       1  UNL1        0.0638
     25 C          12.1821    6.7749   13.2542 C.ar    1  UNL1        0.0907
     26 C          11.9675    2.0400    9.1885 C.ar    1  UNL1        0.1877
     27 C          11.7260    1.5095    7.8749 C.ar    1  UNL1        0.0053
     28 C          12.0331    0.1993    7.6176 C.ar    1  UNL1       -0.0507
     29 H          11.8568   -0.1882    6.6286 H       1  UNL1        0.0625
     30 C          12.5740   -0.6880    8.5706 C.ar    1  UNL1       -0.0412
     31 C          12.7895   -0.2006    9.8286 C.ar    1  UNL1       -0.0493
     32 H          13.1929   -0.8275   10.6084 H       1  UNL1        0.0625
     33 C          12.4979    1.1394   10.1719 C.ar    1  UNL1        0.0240
     34 C          12.7283    1.5196   11.5155 C.3     1  UNL1        0.0956
     35 H          13.0964    0.7193   12.1685 H       1  UNL1        0.0591
     36 C          11.1456    2.4282    6.8059 C.3     1  UNL1       -0.0090
     37 C          10.9335    1.7186    5.4634 C.3     1  UNL1       -0.0559
     38 H          10.5102    2.4244    4.7516 H       1  UNL1        0.0238
     39 H          10.2392    0.8866    5.5602 H       1  UNL1        0.0238
     40 H          11.8742    1.3573    5.0536 H       1  UNL1        0.0238
     41 C          12.1095    3.6006    6.5752 C.3     1  UNL1       -0.0559
     42 H          13.0880    3.2288    6.2751 H       1  UNL1        0.0238
     43 H          12.2197    4.1884    7.4833 H       1  UNL1        0.0238
     44 H          11.7277    4.2466    5.7868 H       1  UNL1        0.0238
     45 C           9.7838    2.9566    7.2785 C.3     1  UNL1       -0.0559
     46 H           9.8945    3.5346    8.1937 H       1  UNL1        0.0238
     47 H           9.1040    2.1277    7.4667 H       1  UNL1        0.0238
     48 H           9.3460    3.5965    6.5146 H       1  UNL1        0.0238
     49 C          12.8845   -2.1171    8.1534 C.3     1  UNL1       -0.0127
     50 C          11.5937   -2.7977    7.6771 C.3     1  UNL1       -0.0560
     51 H          11.1700   -2.2882    6.8163 H       1  UNL1        0.0238
     52 H          10.8527   -2.7949    8.4737 H       1  UNL1        0.0238
     53 H          11.7951   -3.8293    7.3958 H       1  UNL1        0.0238
     54 C          13.9131   -2.0954    7.0140 C.3     1  UNL1       -0.0560
     55 H          13.5291   -1.5734    6.1422 H       1  UNL1        0.0238
     56 H          14.1672   -3.1110    6.7176 H       1  UNL1        0.0238
     57 H          14.8213   -1.5924    7.3392 H       1  UNL1        0.0238
     58 C          13.4644   -2.9474    9.3018 C.3     1  UNL1       -0.0560
     59 H          13.6714   -3.9570    8.9524 H       1  UNL1        0.0238
     60 H          12.7608   -3.0153   10.1282 H       1  UNL1        0.0238
     61 H          14.3967   -2.5183    9.6611 H       1  UNL1        0.0238
     62 C           8.9980    3.8442   12.7072 C.ar    1  UNL1        0.1877
     63 C           7.9201    2.8991   12.8089 C.ar    1  UNL1        0.0053
     64 C           7.0741    2.9676   13.8847 C.ar    1  UNL1       -0.0507
     65 H           6.2671    2.2580   13.9529 H       1  UNL1        0.0625
     66 C           7.1856    3.9165   14.9213 C.ar    1  UNL1       -0.0412
     67 C           8.2110    4.8158   14.8385 C.ar    1  UNL1       -0.0493
     68 H           8.3594    5.5660   15.5995 H       1  UNL1        0.0625
     69 C           9.1286    4.8032   13.7647 C.ar    1  UNL1        0.0240
     70 C          10.1845    5.7428   13.8126 C.3     1  UNL1        0.0956
     71 H          10.1687    6.4200   14.6761 H       1  UNL1        0.0591
     72 C           7.7434    1.8555   11.7113 C.3     1  UNL1       -0.0090
     73 C           9.0149    1.0008   11.6111 C.3     1  UNL1       -0.0559
     74 H           9.8713    1.6206   11.3601 H       1  UNL1        0.0238
     75 H           8.9011    0.2456   10.8356 H       1  UNL1        0.0238
     76 H           9.2069    0.5001   12.5590 H       1  UNL1        0.0238
     77 C           7.4911    2.5710   10.3773 C.3     1  UNL1       -0.0559
     78 H           8.3436    3.1903   10.1129 H       1  UNL1        0.0238
     79 H           6.6073    3.2023   10.4492 H       1  UNL1        0.0238
     80 H           7.3345    1.8416    9.5854 H       1  UNL1        0.0238
     81 C           6.5633    0.9114   11.9690 C.3     1  UNL1       -0.0559
     82 H           6.4997    0.1915   11.1554 H       1  UNL1        0.0238
     83 H           5.6225    1.4562   12.0052 H       1  UNL1        0.0238
     84 H           6.6944    0.3567   12.8957 H       1  UNL1        0.0238
     85 C           6.1761    3.8873   16.0583 C.3     1  UNL1       -0.0127
     86 C           4.7676    4.1042   15.4875 C.3     1  UNL1       -0.0560
     87 H           4.7184    5.0569   14.9648 H       1  UNL1        0.0238
     88 H           4.0338    4.1120   16.2908 H       1  UNL1        0.0238
     89 H           4.4970    3.3184   14.7880 H       1  UNL1        0.0238
     90 C           6.2478    2.5252   16.7627 C.3     1  UNL1       -0.0560
     91 H           6.0019    1.7129   16.0845 H       1  UNL1        0.0238
     92 H           5.5479    2.4960   17.5952 H       1  UNL1        0.0238
     93 H           7.2511    2.3555   17.1478 H       1  UNL1        0.0238
     94 C           6.4412    4.9769   17.1007 C.3     1  UNL1       -0.0560
     95 H           7.4220    4.8529   17.5540 H       1  UNL1        0.0238
     96 H           5.6950    4.9134   17.8902 H       1  UNL1        0.0238
     97 H           6.3761    5.9668   16.6556 H       1  UNL1        0.0238
@<TRIPOS>BOND
     1    38    37    1
     2    40    37    1
     3    37    39    1
     4    37    36    1
     5    44    41    1
     6    55    54    1
     7    42    41    1
     8    48    45    1
     9    41    36    1
    10    41    43    1
    11    29    28    1
    12    56    54    1
    13    36    45    1
    14    36    27    1
    15    51    50    1
    16    54    57    1
    17    54    49    1
    18    45    47    1
    19    45    46    1
    20    53    50    1
    21    28    27   ar
    22    28    30   ar
    23    50    49    1
    24    50    52    1
    25    27    26   ar
    26    49    30    1
    27    49    58    1
    28    30    31   ar
    29    59    58    1
    30    26     4    1
    31    26    33   ar
    32    58    61    1
    33    58    60    1
    34    80    77    1
    35    31    33   ar
    36    31    32    1
    37    78    77    1
    38    33    34    1
    39    77    79    1
    40    77    72    1
    41    75    73    1
    42    82    81    1
    43    74    73    1
    44    34     1    1
    45    34    35    1
    46    73    72    1
    47    73    76    1
    48     5    62    1
    49    72    81    1
    50    72    63    1
    51    81    83    1
    52    81    84    1
    53     1     7    1
    54    62    63   ar
    55    62    69   ar
    56    63    64   ar
    57     3    16    1
    58     3     6    1
    59     2    25    1
    60     2    70    1
    61    16    25   ar
    62    16    17   ar
    63    25    23   ar
    64     7     6   ar
    65     7     8   ar
    66    18    17    1
    67    17    19   ar
    68    23    24    1
    69    23    21   ar
    70    19    21   ar
    71    19    20    1
    72    69    70    1
    73    69    67   ar
    74    21    22    1
    75    70    71    1
    76     6    14   ar
    77    64    65    1
    78    64    66   ar
    79     9     8    1
    80     8    10   ar
    81    89    86    1
    82    67    66   ar
    83    67    68    1
    84    66    85    1
    85    87    86    1
    86    14    15    1
    87    14    12   ar
    88    86    85    1
    89    86    88    1
    90    10    12   ar
    91    10    11    1
    92    85    90    1
    93    85    94    1
    94    91    90    1
    95    12    13    1
    96    97    94    1
    97    90    93    1
    98    90    92    1
    99    94    95    1
   100    94    96    1
