@<TRIPOS>MOLECULE
1,2,3,4
 55 54 0 0 0
SMALL
GASTEIGER

@<TRIPOS>ATOM
      1 O           0.7710    4.4418    2.3883 O.2     1  UNL1       -0.2924
      2 O           1.6737    7.2301    3.6098 O.2     1  UNL1       -0.2924
      3 N          -2.0725    5.0991    2.3980 N.3     1  UNL1       -0.2276
      4 N          -0.7655    7.8557    2.1841 N.3     1  UNL1       -0.2276
      5 C           1.3732    2.4196    1.2224 C.3     1  UNL1        0.0243
      6 C           0.3281    3.4109    1.7866 C.2     1  UNL1        0.1594
      7 C          -1.0087    3.1008    1.5939 C.2     1  UNL1       -0.0178
      8 H          -1.2229    2.1568    1.1187 H       1  UNL1        0.0626
      9 C          -2.1386    3.9099    1.8564 C.3     1  UNL1        0.0782
     10 C          -3.3008    5.8791    2.4387 C.3     1  UNL1        0.0162
     11 H          -4.0348    5.4047    3.1054 H       1  UNL1        0.0441
     12 H          -3.7498    5.9255    1.4342 H       1  UNL1        0.0441
     13 C          -3.0688    7.3092    2.9306 C.3     1  UNL1       -0.0246
     14 H          -2.6204    7.2801    3.9307 H       1  UNL1        0.0291
     15 H          -4.0440    7.7988    3.0042 H       1  UNL1        0.0291
     16 C          -2.1815    8.1290    1.9872 C.3     1  UNL1        0.0162
     17 H          -2.4798    7.9133    0.9493 H       1  UNL1        0.0441
     18 H          -2.3736    9.1985    2.1672 H       1  UNL1        0.0441
     19 C           0.0868    8.4547    1.3929 C.3     1  UNL1        0.0782
     20 C           1.4900    8.3495    1.5357 C.2     1  UNL1       -0.0178
     21 H           2.0709    8.8154    0.7553 H       1  UNL1        0.0626
     22 C           2.1927    7.7658    2.5785 C.2     1  UNL1        0.1594
     23 C           3.7360    7.8146    2.5156 C.3     1  UNL1        0.0243
     24 C           1.0953    2.1248   -0.2565 C.3     1  UNL1       -0.0530
     25 H           1.0125    3.0533   -0.8163 H       1  UNL1        0.0239
     26 H           0.1766    1.5613   -0.3902 H       1  UNL1        0.0239
     27 H           1.9130    1.5404   -0.6747 H       1  UNL1        0.0239
     28 C           1.3209    1.1176    2.0303 C.3     1  UNL1       -0.0530
     29 H           0.3360    0.6620    1.9716 H       1  UNL1        0.0239
     30 H           1.5452    1.3071    3.0778 H       1  UNL1        0.0239
     31 H           2.0523    0.4092    1.6448 H       1  UNL1        0.0239
     32 C           2.7696    3.0355    1.3336 C.3     1  UNL1       -0.0530
     33 H           2.8293    3.9270    0.7139 H       1  UNL1        0.0239
     34 H           3.5232    2.3244    1.0008 H       1  UNL1        0.0239
     35 H           2.9819    3.3229    2.3592 H       1  UNL1        0.0239
     36 C          -3.4610    3.3288    1.4055 C.3     1  UNL1       -0.0395
     37 H          -4.1905    3.3711    2.2132 H       1  UNL1        0.0252
     38 H          -3.3474    2.2950    1.0940 H       1  UNL1        0.0252
     39 H          -3.8607    3.8973    0.5657 H       1  UNL1        0.0252
     40 C          -0.3879    9.3377    0.2601 C.3     1  UNL1       -0.0395
     41 H          -1.0023    8.7666   -0.4355 H       1  UNL1        0.0252
     42 H           0.4507    9.7587   -0.2857 H       1  UNL1        0.0252
     43 H          -0.9941   10.1560    0.6476 H       1  UNL1        0.0252
     44 C           4.2192    9.2687    2.4943 C.3     1  UNL1       -0.0530
     45 H           3.8366    9.8045    3.3598 H       1  UNL1        0.0239
     46 H           3.8852    9.7850    1.5988 H       1  UNL1        0.0239
     47 H           5.3072    9.2992    2.5203 H       1  UNL1        0.0239
     48 C           4.2170    7.0722    1.2645 C.3     1  UNL1       -0.0530
     49 H           3.8789    7.5636    0.3566 H       1  UNL1        0.0239
     50 H           3.8313    6.0556    1.2673 H       1  UNL1        0.0239
     51 H           5.3051    7.0334    1.2479 H       1  UNL1        0.0239
     52 C           4.3078    7.1182    3.7520 C.3     1  UNL1       -0.0530
     53 H           3.9933    7.6383    4.6537 H       1  UNL1        0.0239
     54 H           5.3955    7.1070    3.7108 H       1  UNL1        0.0239
     55 H           3.9418    6.0953    3.7961 H       1  UNL1        0.0239
@<TRIPOS>BOND
     1    25    24    1
     2    27    24    1
     3    41    40    1
     4    26    24    1
     5    42    40    1
     6    24     5    1
     7    40    43    1
     8    40    19    1
     9    49    48    1
    10    39    36    1
    11    33    32    1
    12    21    20    1
    13    17    16    1
    14    34    32    1
    15    38    36    1
    16     8     7    1
    17     5    32    1
    18     5     6    1
    19     5    28    1
    20    51    48    1
    21    48    50    1
    22    48    23    1
    23    32    35    1
    24    19    20    1
    25    19     4    1
    26    36     9    1
    27    36    37    1
    28    12    10    1
    29    20    22    2
    30     7     6    2
    31     7     9    1
    32    46    44    1
    33    31    28    1
    34     6     1    1
    35     9     3    1
    36    29    28    1
    37    16    18    1
    38    16     4    1
    39    16    13    1
    40    28    30    1
    41     3    10    1
    42    10    13    1
    43    10    11    1
    44    44    23    1
    45    44    47    1
    46    44    45    1
    47    23    22    1
    48    23    52    1
    49    22     2    1
    50    13    15    1
    51    13    14    1
    52    54    52    1
    53    52    55    1
    54    52    53    1
