@<TRIPOS>MOLECULE
1,2,3,4
 98 99 0 0 0
SMALL
GASTEIGER

@<TRIPOS>ATOM
      1 N           4.9977   11.3529   12.4678 N.3     1  UNL1       -0.2925
      2 N           4.7856    9.0589   14.3074 N.3     1  UNL1       -0.3016
      3 O           7.0503   11.9225   14.6829 O.3     1  UNL1       -0.2873
      4 O           7.3423    9.6113   11.3589 O.3     1  UNL1       -0.2873
      5 C           6.0335   12.5848   15.1936 C.ar    1  UNL1        0.1870
      6 C           5.9624   12.9486   16.5680 C.ar    1  UNL1        0.0052
      7 C           4.8184   13.5710   17.0309 C.ar    1  UNL1       -0.0507
      8 H           4.7570   13.8185   18.0767 H       1  UNL1        0.0625
      9 C           3.7348   13.9104   16.2238 C.ar    1  UNL1       -0.0412
     10 C           3.8495   13.6338   14.8732 C.ar    1  UNL1       -0.0500
     11 H           3.0701   13.9206   14.1831 H       1  UNL1        0.0625
     12 C           4.9652   12.9919   14.3609 C.ar    1  UNL1        0.0138
     13 C           5.0718   12.7705   12.8760 C.3     1  UNL1        0.0281
     14 H           4.2702   13.3369   12.3701 H       1  UNL1        0.0477
     15 H           6.0349   13.1622   12.5305 H       1  UNL1        0.0477
     16 C           3.7043   10.7856   12.8662 C.3     1  UNL1        0.0123
     17 H           2.9344   11.5699   12.9057 H       1  UNL1        0.0439
     18 H           3.3986   10.0569   12.1130 H       1  UNL1        0.0439
     19 C           3.7526   10.0983   14.2318 C.3     1  UNL1        0.0117
     20 H           2.7516    9.6787   14.4256 H       1  UNL1        0.0439
     21 H           3.9663   10.8473   14.9979 H       1  UNL1        0.0439
     22 C           5.1306   11.2896   10.9958 C.3     1  UNL1        0.0281
     23 H           6.0672   11.7933   10.7275 H       1  UNL1        0.0477
     24 H           4.2961   11.8371   10.5248 H       1  UNL1        0.0477
     25 C           5.1732    9.8833   10.4610 C.ar    1  UNL1        0.0138
     26 C           4.0788    9.3625    9.7946 C.ar    1  UNL1       -0.0500
     27 H           3.1938    9.9789    9.7013 H       1  UNL1        0.0625
     28 C           4.1025    8.0889    9.2450 C.ar    1  UNL1       -0.0412
     29 C           5.3141    7.4093    9.2892 C.ar    1  UNL1       -0.0507
     30 H           5.3759    6.4517    8.8059 H       1  UNL1        0.0625
     31 C           6.4503    7.9014    9.9102 C.ar    1  UNL1        0.0052
     32 C           6.3636    9.1322   10.6168 C.ar    1  UNL1        0.1870
     33 C           7.7859    7.1735    9.7860 C.3     1  UNL1       -0.0090
     34 C           7.7242    5.9406    8.8772 C.3     1  UNL1       -0.0559
     35 H           8.7214    5.5116    8.7953 H       1  UNL1        0.0238
     36 H           7.3892    6.2035    7.8765 H       1  UNL1        0.0238
     37 H           7.0669    5.1763    9.2861 H       1  UNL1        0.0238
     38 C           8.2831    6.7179   11.1618 C.3     1  UNL1       -0.0559
     39 H           7.6006    5.9833   11.5850 H       1  UNL1        0.0238
     40 H           8.3579    7.5709   11.8308 H       1  UNL1        0.0238
     41 H           9.2670    6.2606   11.0721 H       1  UNL1        0.0238
     42 C           2.8438    7.5146    8.6125 C.3     1  UNL1       -0.0127
     43 C           8.7976    8.1521    9.1736 C.3     1  UNL1       -0.0559
     44 H           8.8802    9.0336    9.8009 H       1  UNL1        0.0238
     45 H           8.4715    8.4602    8.1818 H       1  UNL1        0.0238
     46 H           9.7782    7.6874    9.0917 H       1  UNL1        0.0238
     47 C           3.0425    6.0923    8.0818 C.3     1  UNL1       -0.0560
     48 H           2.1055    5.7250    7.6669 H       1  UNL1        0.0238
     49 H           3.3466    5.4170    8.8782 H       1  UNL1        0.0238
     50 H           3.7894    6.0709    7.2919 H       1  UNL1        0.0238
     51 C           7.1494   12.6982   17.4938 C.3     1  UNL1       -0.0090
     52 C           7.4385   11.1953   17.5865 C.3     1  UNL1       -0.0559
     53 H           6.5905   10.6738   18.0285 H       1  UNL1        0.0238
     54 H           8.3134   11.0175   18.2094 H       1  UNL1        0.0238
     55 H           7.6319   10.7943   16.5945 H       1  UNL1        0.0238
     56 C           8.3716   13.4186   16.9093 C.3     1  UNL1       -0.0559
     57 H           8.5898   13.0229   15.9229 H       1  UNL1        0.0238
     58 H           9.2419   13.2707   17.5458 H       1  UNL1        0.0238
     59 H           8.1761   14.4865   16.8274 H       1  UNL1        0.0238
     60 C           1.9248   13.6494   17.9147 C.3     1  UNL1       -0.0560
     61 H           2.6448   13.4477   18.7027 H       1  UNL1        0.0238
     62 H           1.6336   12.7002   17.4688 H       1  UNL1        0.0238
     63 H           1.0447   14.1044   18.3651 H       1  UNL1        0.0238
     64 C           6.9322   13.2235   18.9173 C.3     1  UNL1       -0.0559
     65 H           6.7523   14.2962   18.9192 H       1  UNL1        0.0238
     66 H           7.8283   13.0335   19.5055 H       1  UNL1        0.0238
     67 H           6.1011   12.7188   19.4055 H       1  UNL1        0.0238
     68 C           1.7342    7.4731    9.6743 C.3     1  UNL1       -0.0560
     69 H           1.5031    8.4693   10.0422 H       1  UNL1        0.0238
     70 H           2.0468    6.8614   10.5185 H       1  UNL1        0.0238
     71 H           0.8250    7.0459    9.2559 H       1  UNL1        0.0238
     72 C           2.5165   14.5775   16.8441 C.3     1  UNL1       -0.0127
     73 C           2.9351   15.9069   17.4871 C.3     1  UNL1       -0.0560
     74 H           3.6685   15.7509   18.2731 H       1  UNL1        0.0238
     75 H           2.0707   16.4058   17.9212 H       1  UNL1        0.0238
     76 H           3.3741   16.5629   16.7384 H       1  UNL1        0.0238
     77 C           1.4212   14.8721   15.8152 C.3     1  UNL1       -0.0560
     78 H           0.5694   15.3332   16.3118 H       1  UNL1        0.0238
     79 H           1.0778   13.9570   15.3376 H       1  UNL1        0.0238
     80 H           1.7776   15.5603   15.0523 H       1  UNL1        0.0238
     81 C           2.4049    8.4038    7.4411 C.3     1  UNL1       -0.0560
     82 H           1.5104    7.9973    6.9730 H       1  UNL1        0.0238
     83 H           3.1941    8.4545    6.6945 H       1  UNL1        0.0238
     84 H           2.1858    9.4148    7.7726 H       1  UNL1        0.0238
     85 C           4.3542    7.8803   13.5384 C.3     1  UNL1       -0.0039
     86 H           4.2220    8.1945   12.5007 H       1  UNL1        0.0424
     87 H           3.3815    7.5142   13.9048 H       1  UNL1        0.0424
     88 C           5.0754    8.7396   15.7160 C.3     1  UNL1       -0.0039
     89 H           5.4024    9.6688   16.1908 H       1  UNL1        0.0424
     90 H           5.9139    8.0403   15.7368 H       1  UNL1        0.0424
     91 C           5.3662    6.7440   13.5423 C.3     1  UNL1       -0.0524
     92 H           6.3503    7.1355   13.2917 H       1  UNL1        0.0242
     93 H           5.0825    6.0153   12.7863 H       1  UNL1        0.0242
     94 H           5.4131    6.2370   14.5030 H       1  UNL1        0.0242
     95 C           3.9230    8.1543   16.5387 C.3     1  UNL1       -0.0524
     96 H           3.0800    8.8388   16.5849 H       1  UNL1        0.0242
     97 H           4.2721    7.9822   17.5537 H       1  UNL1        0.0242
     98 H           3.5829    7.2041   16.1354 H       1  UNL1        0.0242
@<TRIPOS>BOND
     1    83    81    1
     2    82    81    1
     3    50    47    1
     4    81    84    1
     5    81    42    1
     6    48    47    1
     7    36    34    1
     8    47    42    1
     9    47    49    1
    10    45    43    1
    11    42    28    1
    12    42    68    1
    13    35    34    1
    14    30    29    1
    15    34    37    1
    16    34    33    1
    17    46    43    1
    18    43    33    1
    19    43    44    1
    20    28    29   ar
    21    28    26   ar
    22    71    68    1
    23    29    31   ar
    24    68    69    1
    25    68    70    1
    26    27    26    1
    27    33    31    1
    28    33    38    1
    29    26    25   ar
    30    31    32   ar
    31    25    32   ar
    32    25    22    1
    33    24    22    1
    34    32     4    1
    35    23    22    1
    36    22     1    1
    37    41    38    1
    38    38    39    1
    39    38    40    1
    40    18    16    1
    41    14    13    1
    42     1    16    1
    43     1    13    1
    44    86    85    1
    45    15    13    1
    46    93    91    1
    47    16    17    1
    48    16    19    1
    49    13    12    1
    50    92    91    1
    51    85    91    1
    52    85    87    1
    53    85     2    1
    54    91    94    1
    55    11    10    1
    56    19     2    1
    57    19    20    1
    58    19    21    1
    59     2    88    1
    60    12    10   ar
    61    12     5   ar
    62     3     5    1
    63    10     9   ar
    64    80    77    1
    65     5     6   ar
    66    79    77    1
    67    88    90    1
    68    88    89    1
    69    88    95    1
    70    77    78    1
    71    77    72    1
    72    57    56    1
    73    98    95    1
    74     9    72    1
    75     9     7   ar
    76    95    96    1
    77    95    97    1
    78     6     7   ar
    79     6    51    1
    80    55    52    1
    81    76    73    1
    82    59    56    1
    83    72    73    1
    84    72    60    1
    85    56    51    1
    86    56    58    1
    87     7     8    1
    88    62    60    1
    89    73    75    1
    90    73    74    1
    91    51    52    1
    92    51    64    1
    93    52    53    1
    94    52    54    1
    95    60    63    1
    96    60    61    1
    97    64    65    1
    98    64    67    1
    99    64    66    1
