@<TRIPOS>MOLECULE
1,2,3,4
 84 87 0 0 0
SMALL
GASTEIGER

@<TRIPOS>ATOM
      1 O         -15.3380   17.8387   12.6877 O.3     1  UNL1       -0.2872
      2 O         -11.2520   17.3767   12.8692 O.3     1  UNL1       -0.2872
      3 N         -13.5558   19.2428   14.0069 N.pl3   1  UNL1       -0.2397
      4 N         -12.4173   19.0598   11.1494 N.pl3   1  UNL1       -0.2397
      5 C         -16.1005   17.8760   13.7251 C.ar    1  UNL1        0.1879
      6 C         -17.4244   17.3173   13.6942 C.ar    1  UNL1        0.0050
      7 C         -18.1625   17.3212   14.8519 C.ar    1  UNL1       -0.0542
      8 H         -19.1464   16.8811   14.8699 H       1  UNL1        0.0622
      9 C         -17.6938   17.8782   16.0449 C.ar    1  UNL1       -0.0580
     10 H         -18.3187   17.8320   16.9249 H       1  UNL1        0.0620
     11 C         -16.4726   18.4994   16.1011 C.ar    1  UNL1       -0.0417
     12 C         -15.6634   18.5191   14.9378 C.ar    1  UNL1        0.0266
     13 C         -16.0182   19.1194   17.3927 C.3     1  UNL1       -0.0393
     14 H         -15.0410   18.7455   17.6968 H       1  UNL1        0.0278
     15 H         -16.7308   18.8917   18.1821 H       1  UNL1        0.0278
     16 H         -15.9541   20.2037   17.3017 H       1  UNL1        0.0278
     17 C         -17.9659   16.7387   12.3934 C.3     1  UNL1       -0.0090
     18 C         -17.9293   17.8290   11.3138 C.3     1  UNL1       -0.0559
     19 H         -18.5544   18.6703   11.6092 H       1  UNL1        0.0238
     20 H         -18.2990   17.4328   10.3706 H       1  UNL1        0.0238
     21 H         -16.9134   18.1822   11.1675 H       1  UNL1        0.0238
     22 C         -19.4166   16.2577   12.5216 C.3     1  UNL1       -0.0559
     23 H         -20.0762   17.0681   12.8237 H       1  UNL1        0.0238
     24 H         -19.5036   15.4405   13.2344 H       1  UNL1        0.0238
     25 H         -19.7552   15.8926   11.5543 H       1  UNL1        0.0238
     26 C         -17.1117   15.5399   11.9587 C.3     1  UNL1       -0.0559
     27 H         -17.4870   15.1441   11.0174 H       1  UNL1        0.0238
     28 H         -17.1638   14.7516   12.7092 H       1  UNL1        0.0238
     29 H         -16.0731   15.8298   11.8126 H       1  UNL1        0.0238
     30 C         -14.4418   19.2509   14.9481 C.3     1  UNL1        0.0957
     31 H         -14.2846   19.9263   15.7964 H       1  UNL1        0.0591
     32 C         -12.4435   20.0921   14.1129 C.ar    1  UNL1        0.0565
     33 C         -11.5724   20.0169   15.1949 C.ar    1  UNL1       -0.0385
     34 H         -11.7788   19.3190   15.9944 H       1  UNL1        0.0637
     35 C         -10.4350   20.8036   15.2218 C.ar    1  UNL1       -0.0597
     36 H          -9.7517   20.7303   16.0548 H       1  UNL1        0.0618
     37 C         -10.1690   21.6696   14.1798 C.ar    1  UNL1       -0.0581
     38 H          -9.2684   22.2661   14.1905 H       1  UNL1        0.0620
     39 C         -11.0499   21.7935   13.1097 C.ar    1  UNL1       -0.0409
     40 C         -12.2064   21.0193   13.0851 C.ar    1  UNL1        0.0097
     41 C         -10.7155   22.7413   11.9949 C.3     1  UNL1       -0.0391
     42 H         -11.4827   22.7352   11.2256 H       1  UNL1        0.0278
     43 H          -9.7659   22.4549   11.5435 H       1  UNL1        0.0278
     44 H         -10.6056   23.7559   12.3765 H       1  UNL1        0.0278
     45 C         -13.2115   21.1568   11.9980 C.ar    1  UNL1        0.0097
     46 C         -14.1028   22.2288   11.9665 C.ar    1  UNL1       -0.0409
     47 C         -15.0028   22.3255   10.9125 C.ar    1  UNL1       -0.0581
     48 H         -15.6974   23.1524   10.8854 H       1  UNL1        0.0620
     49 C         -15.0184   21.3819    9.9008 C.ar    1  UNL1       -0.0597
     50 H         -15.7145   21.4819    9.0816 H       1  UNL1        0.0618
     51 C         -14.1518   20.3039    9.9355 C.ar    1  UNL1       -0.0385
     52 H         -14.1635   19.5523    9.1609 H       1  UNL1        0.0637
     53 C         -13.2663   20.1758   10.9991 C.ar    1  UNL1        0.0565
     54 C         -14.0840   23.2610   13.0539 C.3     1  UNL1       -0.0391
     55 H         -13.9507   22.7904   14.0260 H       1  UNL1        0.0278
     56 H         -15.0111   23.8287   13.0575 H       1  UNL1        0.0278
     57 H         -13.2576   23.9559   12.9066 H       1  UNL1        0.0278
     58 C         -11.2598   19.0449   10.5774 C.3     1  UNL1        0.0957
     59 H         -11.0257   19.8519    9.8735 H       1  UNL1        0.0591
     60 C         -10.2026   18.1360   10.8683 C.ar    1  UNL1        0.0266
     61 C          -9.0916   18.0723    9.9917 C.ar    1  UNL1       -0.0417
     62 C          -7.9899   17.3497   10.3711 C.ar    1  UNL1       -0.0580
     63 H          -7.1443   17.2581    9.7056 H       1  UNL1        0.0620
     64 C          -7.9293   16.7551   11.6324 C.ar    1  UNL1       -0.0542
     65 H          -7.0137   16.2497   11.8935 H       1  UNL1        0.0622
     66 C          -8.9754   16.7908   12.5216 C.ar    1  UNL1        0.0050
     67 C         -10.2049   17.4109   12.1124 C.ar    1  UNL1        0.1879
     68 C          -9.1122   18.7492    8.6521 C.3     1  UNL1       -0.0393
     69 H         -10.0006   18.4740    8.0868 H       1  UNL1        0.0278
     70 H          -8.2356   18.4594    8.0775 H       1  UNL1        0.0278
     71 H          -9.0982   19.8343    8.7609 H       1  UNL1        0.0278
     72 C          -8.8517   16.1972   13.9199 C.3     1  UNL1       -0.0090
     73 C          -9.1329   17.3099   14.9400 C.3     1  UNL1       -0.0559
     74 H         -10.1074   17.7515   14.7543 H       1  UNL1        0.0238
     75 H          -8.3829   18.0943   14.8556 H       1  UNL1        0.0238
     76 H          -9.1064   16.9118   15.9534 H       1  UNL1        0.0238
     77 C          -7.4534   15.6399   14.2105 C.3     1  UNL1       -0.0559
     78 H          -6.6910   16.4084   14.1051 H       1  UNL1        0.0238
     79 H          -7.2160   14.8065   13.5537 H       1  UNL1        0.0238
     80 H          -7.4223   15.2758   15.2360 H       1  UNL1        0.0238
     81 C          -9.8574   15.0547   14.0962 C.3     1  UNL1       -0.0559
     82 H          -9.7691   14.6311   15.0961 H       1  UNL1        0.0238
     83 H          -9.6650   14.2698   13.3685 H       1  UNL1        0.0238
     84 H         -10.8693   15.4175   13.9442 H       1  UNL1        0.0238
@<TRIPOS>BOND
     1    70    68    1
     2    69    68    1
     3    68    71    1
     4    68    61    1
     5    50    49    1
     6    52    51    1
     7    63    62    1
     8    59    58    1
     9    49    51   ar
    10    49    47   ar
    11    51    53   ar
    12    61    62   ar
    13    61    60   ar
    14    20    18    1
    15    62    64   ar
    16    58    60    1
    17    58     4    1
    18    60    67   ar
    19    48    47    1
    20    47    46   ar
    21    53     4    1
    22    53    45   ar
    23    27    26    1
    24    21    18    1
    25    42    41    1
    26    18    19    1
    27    18    17    1
    28    43    41    1
    29    25    22    1
    30    64    65    1
    31    64    66   ar
    32    29    26    1
    33    26    17    1
    34    26    28    1
    35    46    45   ar
    36    46    54    1
    37    41    44    1
    38    41    39    1
    39    45    40    1
    40    67    66   ar
    41    67     2    1
    42    17    22    1
    43    17     6    1
    44    66    72    1
    45    22    23    1
    46    22    24    1
    47     1     5    1
    48    57    54    1
    49    54    56    1
    50    54    55    1
    51    40    39   ar
    52    40    32   ar
    53    39    37   ar
    54    83    81    1
    55    79    77    1
    56     6     5   ar
    57     6     7   ar
    58     5    12   ar
    59    72    81    1
    60    72    77    1
    61    72    73    1
    62    84    81    1
    63     3    32    1
    64     3    30    1
    65    81    82    1
    66    78    77    1
    67    32    33   ar
    68    37    38    1
    69    37    35   ar
    70    77    80    1
    71    74    73    1
    72     7     8    1
    73     7     9   ar
    74    75    73    1
    75    12    30    1
    76    12    11   ar
    77    73    76    1
    78    30    31    1
    79    33    35   ar
    80    33    34    1
    81    35    36    1
    82     9    11   ar
    83     9    10    1
    84    11    13    1
    85    16    13    1
    86    13    14    1
    87    13    15    1
