@<TRIPOS>MOLECULE
1,2,3,4
 106 109 0 0 0
SMALL
GASTEIGER

@<TRIPOS>ATOM
      1 O           6.6825   13.0614    9.0198 O.3     1  UNL1       -0.2873
      2 O           3.9094   11.9068    8.7928 O.3     1  UNL1       -0.2873
      3 N           6.7882   14.1425    6.3016 N.pl3   1  UNL1       -0.3239
      4 N           4.7328   12.0103    5.8851 N.pl3   1  UNL1       -0.3239
      5 C           7.8843   12.5927    8.7448 C.ar    1  UNL1        0.1873
      6 C           8.6397   13.2083    7.7203 C.ar    1  UNL1        0.0170
      7 C           9.9005   12.7583    7.3745 C.ar    1  UNL1       -0.0497
      8 H          10.4266   13.2727    6.5819 H       1  UNL1        0.0625
      9 C          10.4886   11.6892    8.0316 C.ar    1  UNL1       -0.0412
     10 C           9.7592   11.1038    9.0605 C.ar    1  UNL1       -0.0507
     11 H          10.2051   10.2839    9.5918 H       1  UNL1        0.0625
     12 C           8.4939   11.5165    9.4457 C.ar    1  UNL1        0.0052
     13 C           8.0658   14.4126    7.0297 C.3     1  UNL1        0.0409
     14 H           8.8029   14.8013    6.3102 H       1  UNL1        0.0514
     15 H           7.8708   15.1900    7.7747 H       1  UNL1        0.0514
     16 C          11.8796   11.2259    7.6253 C.3     1  UNL1       -0.0127
     17 C          11.8637   10.8175    6.1451 C.3     1  UNL1       -0.0560
     18 H          11.1503   10.0111    5.9866 H       1  UNL1        0.0238
     19 H          12.8491   10.4724    5.8382 H       1  UNL1        0.0238
     20 H          11.5828   11.6520    5.5083 H       1  UNL1        0.0238
     21 C          12.8709   12.3799    7.8318 C.3     1  UNL1       -0.0560
     22 H          12.6079   13.2401    7.2223 H       1  UNL1        0.0238
     23 H          13.8780   12.0662    7.5639 H       1  UNL1        0.0238
     24 H          12.8704   12.6901    8.8744 H       1  UNL1        0.0238
     25 C          12.3694   10.0273    8.4420 C.3     1  UNL1       -0.0560
     26 H          12.4374   10.2764    9.4982 H       1  UNL1        0.0238
     27 H          13.3616    9.7370    8.1013 H       1  UNL1        0.0238
     28 H          11.7079    9.1730    8.3187 H       1  UNL1        0.0238
     29 C           7.7762   10.8423   10.6102 C.3     1  UNL1       -0.0090
     30 C           8.6079    9.7450   11.2846 C.3     1  UNL1       -0.0559
     31 H           8.8239    8.9295   10.5977 H       1  UNL1        0.0238
     32 H           8.0397    9.3356   12.1178 H       1  UNL1        0.0238
     33 H           9.5411   10.1401   11.6797 H       1  UNL1        0.0238
     34 C           7.4503   11.9002   11.6720 C.3     1  UNL1       -0.0559
     35 H           8.3679   12.3375   12.0614 H       1  UNL1        0.0238
     36 H           6.9006   11.4500   12.4961 H       1  UNL1        0.0238
     37 H           6.8440   12.6878   11.2379 H       1  UNL1        0.0238
     38 C           6.4793   10.2015   10.1024 C.3     1  UNL1       -0.0559
     39 H           5.8144   10.9634    9.7029 H       1  UNL1        0.0238
     40 H           5.9660    9.6926   10.9154 H       1  UNL1        0.0238
     41 H           6.6927    9.4711    9.3228 H       1  UNL1        0.0238
     42 C           6.4277   15.3649    5.6308 C.ar    1  UNL1        0.0300
     43 C           6.0621   16.4498    6.4300 C.ar    1  UNL1       -0.0407
     44 H           5.9796   16.3239    7.5020 H       1  UNL1        0.0636
     45 C           5.7836   17.6803    5.8710 C.ar    1  UNL1       -0.0600
     46 H           5.5249   18.5076    6.5135 H       1  UNL1        0.0618
     47 C           5.8397   17.8549    4.4975 C.ar    1  UNL1       -0.0616
     48 H           5.6170   18.8149    4.0576 H       1  UNL1        0.0618
     49 C           6.1809   16.7826    3.6964 C.ar    1  UNL1       -0.0600
     50 H           6.2251   16.8997    2.6235 H       1  UNL1        0.0618
     51 C           6.4869   15.5504    4.2534 C.ar    1  UNL1       -0.0407
     52 H           6.7692   14.7525    3.5849 H       1  UNL1        0.0636
     53 C           6.9911   12.9804    5.4283 C.3     1  UNL1        0.0283
     54 H           7.4733   12.2062    6.0341 H       1  UNL1        0.0479
     55 H           7.6825   13.2133    4.6044 H       1  UNL1        0.0479
     56 C           5.6908   12.4246    4.8496 C.3     1  UNL1        0.0283
     57 H           5.1980   13.1826    4.2320 H       1  UNL1        0.0479
     58 H           5.9670   11.5788    4.2001 H       1  UNL1        0.0479
     59 C           3.4200   11.7827    5.3048 C.ar    1  UNL1        0.0300
     60 C           3.2445   11.0599    4.1306 C.ar    1  UNL1       -0.0407
     61 H           4.0926   10.6828    3.5793 H       1  UNL1        0.0636
     62 C           1.9712   10.7950    3.6573 C.ar    1  UNL1       -0.0600
     63 H           1.8499   10.2292    2.7452 H       1  UNL1        0.0618
     64 C           0.8607   11.2383    4.3524 C.ar    1  UNL1       -0.0616
     65 H          -0.1309   11.0206    3.9851 H       1  UNL1        0.0618
     66 C           1.0303   11.9608    5.5206 C.ar    1  UNL1       -0.0600
     67 H           0.1709   12.3131    6.0694 H       1  UNL1        0.0618
     68 C           2.3013   12.2346    5.9918 C.ar    1  UNL1       -0.0407
     69 H           2.4325   12.8043    6.9047 H       1  UNL1        0.0636
     70 C           3.4315   10.7465    8.3814 C.ar    1  UNL1        0.1873
     71 C           3.9911   10.0956    7.2630 C.ar    1  UNL1        0.0170
     72 C           3.4402    8.9251    6.7656 C.ar    1  UNL1       -0.0497
     73 H           3.8958    8.4845    5.8924 H       1  UNL1        0.0625
     74 C           2.3330    8.3440    7.3538 C.ar    1  UNL1       -0.0412
     75 C           1.8233    8.9588    8.4959 C.ar    1  UNL1       -0.0507
     76 H           0.9728    8.5027    8.9725 H       1  UNL1        0.0625
     77 C           2.3380   10.1208    9.0365 C.ar    1  UNL1        0.0052
     78 C           5.1498   10.7254    6.5310 C.3     1  UNL1        0.0409
     79 H           5.5010   10.0258    5.7567 H       1  UNL1        0.0514
     80 H           5.9805   10.9253    7.2214 H       1  UNL1        0.0514
     81 C           1.6402    7.1127    6.7917 C.3     1  UNL1       -0.0127
     82 C           2.3338    6.5708    5.5388 C.3     1  UNL1       -0.0560
     83 H           2.3395    7.3160    4.7464 H       1  UNL1        0.0238
     84 H           1.7980    5.6958    5.1756 H       1  UNL1        0.0238
     85 H           3.3565    6.2726    5.7573 H       1  UNL1        0.0238
     86 C           0.2033    7.4960    6.4086 C.3     1  UNL1       -0.0560
     87 H          -0.3596    7.8275    7.2763 H       1  UNL1        0.0238
     88 H          -0.3125    6.6432    5.9713 H       1  UNL1        0.0238
     89 H           0.2167    8.3067    5.6824 H       1  UNL1        0.0238
     90 C           1.6200    5.9984    7.8463 C.3     1  UNL1       -0.0560
     91 H           2.6360    5.7405    8.1374 H       1  UNL1        0.0238
     92 H           1.1375    5.1088    7.4461 H       1  UNL1        0.0238
     93 H           1.0796    6.3066    8.7365 H       1  UNL1        0.0238
     94 C           1.7489   10.7485   10.2953 C.3     1  UNL1       -0.0090
     95 C           0.5897    9.9361   10.8840 C.3     1  UNL1       -0.0559
     96 H          -0.2461    9.8770   10.1901 H       1  UNL1        0.0238
     97 H           0.2368   10.4248   11.7903 H       1  UNL1        0.0238
     98 H           0.9079    8.9304   11.1492 H       1  UNL1        0.0238
     99 C           2.8449   10.8408   11.3652 C.3     1  UNL1       -0.0559
    100 H           3.1986    9.8445   11.6235 H       1  UNL1        0.0238
    101 H           2.4562   11.3168   12.2633 H       1  UNL1        0.0238
    102 H           3.6845   11.4221   10.9974 H       1  UNL1        0.0238
    103 C           1.2169   12.1515    9.9695 C.3     1  UNL1       -0.0559
    104 H           2.0202   12.7990    9.6212 H       1  UNL1        0.0238
    105 H           0.7744   12.5985   10.8580 H       1  UNL1        0.0238
    106 H           0.4516   12.0868    9.1974 H       1  UNL1        0.0238
@<TRIPOS>BOND
     1    50    49    1
     2    63    62    1
     3    61    60    1
     4    52    51    1
     5    62    60   ar
     6    62    64   ar
     7    49    51   ar
     8    49    47   ar
     9    65    64    1
    10    48    47    1
    11    60    59   ar
    12    58    56    1
    13    57    56    1
    14    51    42   ar
    15    64    66   ar
    16    47    45   ar
    17    55    53    1
    18    83    82    1
    19    56    53    1
    20    56     4    1
    21    84    82    1
    22    59     4    1
    23    59    68   ar
    24    53    54    1
    25    53     3    1
    26    20    17    1
    27    66    68   ar
    28    66    67    1
    29    82    85    1
    30    82    81    1
    31    42     3    1
    32    42    43   ar
    33    89    86    1
    34    79    78    1
    35    19    17    1
    36    45    43   ar
    37    45    46    1
    38     4    78    1
    39    73    72    1
    40    88    86    1
    41    18    17    1
    42    68    69    1
    43    17    16    1
    44     3    13    1
    45    14    13    1
    46    86    81    1
    47    86    87    1
    48    43    44    1
    49    78    80    1
    50    78    71    1
    51     8     7    1
    52    72    71   ar
    53    72    74   ar
    54    81    74    1
    55    81    90    1
    56    13     6    1
    57    13    15    1
    58    22    21    1
    59    71    70   ar
    60    74    75   ar
    61     7     6   ar
    62     7     9   ar
    63    92    90    1
    64    23    21    1
    65    16    21    1
    66    16     9    1
    67    16    25    1
    68     6     5   ar
    69    21    24    1
    70    90    91    1
    71    90    93    1
    72     9    10   ar
    73    27    25    1
    74    28    25    1
    75    70     2    1
    76    70    77   ar
    77    25    26    1
    78    75    76    1
    79    75    77   ar
    80     5     1    1
    81     5    12   ar
    82    77    94    1
    83    10    12   ar
    84    10    11    1
    85   106   103    1
    86    41    38    1
    87    12    29    1
    88   104   103    1
    89    39    38    1
    90   103    94    1
    91   103   105    1
    92    38    29    1
    93    38    40    1
    94    96    95    1
    95    94    95    1
    96    94    99    1
    97    31    30    1
    98    29    30    1
    99    29    34    1
   100    95    98    1
   101    95    97    1
   102   102    99    1
   103    37    34    1
   104    30    33    1
   105    30    32    1
   106    99   100    1
   107    99   101    1
   108    34    35    1
   109    34    36    1
