@<TRIPOS>MOLECULE
1,2,24,25
 44 45 0 0 0
SMALL
GASTEIGER

@<TRIPOS>ATOM
      1 O           5.4684    5.5916    1.4484 O.3     1  UNL1       -0.4932
      2 N           6.4455    3.4599    2.7164 N.pl3   1  UNL1       -0.2341
      3 C           5.7801    1.6065    4.1036 C.2     1  UNL1       -0.0383
      4 H           5.7801    0.5238    4.1036 H       1  UNL1        0.0610
      5 C           6.5990    5.0336    0.8857 C.ar    1  UNL1        0.1426
      6 C           6.3863    1.1624    1.7801 C.3     1  UNL1       -0.0359
      7 H           6.4279    1.6481    0.8090 H       1  UNL1        0.0255
      8 H           5.5449    0.4724    1.7913 H       1  UNL1        0.0255
      9 H           7.2949    0.5785    1.9170 H       1  UNL1        0.0255
     10 C           7.1062    3.9043    1.5648 C.ar    1  UNL1        0.0904
     11 C           6.2150    2.1693    2.8994 C.3     1  UNL1        0.0969
     12 C           8.2787    3.3225    1.0846 C.ar    1  UNL1       -0.0355
     13 H           8.7083    2.4930    1.6233 H       1  UNL1        0.0638
     14 C           7.2256    5.5062   -0.2539 C.ar    1  UNL1       -0.0181
     15 H           6.8309    6.3565   -0.7863 H       1  UNL1        0.0655
     16 C           8.9088    3.8107   -0.0470 C.ar    1  UNL1       -0.0597
     17 H           9.8164    3.3427   -0.3967 H       1  UNL1        0.0618
     18 C           4.6979    6.4629    0.6362 C.3     1  UNL1        0.0789
     19 H           5.2439    7.3749    0.3815 H       1  UNL1        0.0660
     20 H           3.8280    6.7203    1.2381 H       1  UNL1        0.0660
     21 H           4.3842    5.9559   -0.2823 H       1  UNL1        0.0660
     22 C           8.3785    4.8920   -0.7230 C.ar    1  UNL1       -0.0582
     23 H           8.8588    5.2710   -1.6118 H       1  UNL1        0.0619
     24 O           6.0918    5.5916    6.7589 O.3     1  UNL1       -0.4932
     25 N           5.1148    3.4599    5.4909 N.pl3   1  UNL1       -0.2162
     26 C           4.9612    5.0336    7.3216 C.ar    1  UNL1        0.1429
     27 C           5.1740    1.1624    6.4272 C.3     1  UNL1       -0.0248
     28 H           5.1324    1.6480    7.3983 H       1  UNL1        0.0290
     29 H           6.0154    0.4724    6.4159 H       1  UNL1        0.0290
     30 H           4.2654    0.5785    6.2902 H       1  UNL1        0.0290
     31 C           4.4540    3.9043    6.6425 C.ar    1  UNL1        0.0948
     32 C           5.3453    2.1693    5.3079 C.2     1  UNL1        0.0265
     33 C           3.2816    3.3224    7.1227 C.ar    1  UNL1       -0.0351
     34 H           2.8519    2.4929    6.5840 H       1  UNL1        0.0638
     35 C           4.3346    5.5061    8.4612 C.ar    1  UNL1       -0.0180
     36 H           4.7293    6.3564    8.9937 H       1  UNL1        0.0655
     37 C           2.6515    3.8105    8.2544 C.ar    1  UNL1       -0.0597
     38 H           1.7439    3.3426    8.6040 H       1  UNL1        0.0618
     39 C           6.8623    6.4629    7.5712 C.3     1  UNL1        0.0789
     40 H           6.3163    7.3749    7.8258 H       1  UNL1        0.0660
     41 H           7.7322    6.7202    6.9693 H       1  UNL1        0.0660
     42 H           7.1760    5.9559    8.4897 H       1  UNL1        0.0660
     43 C           3.1817    4.8918    8.9304 C.ar    1  UNL1       -0.0582
     44 H           2.7014    5.2708    9.8192 H       1  UNL1        0.0619
@<TRIPOS>BOND
     1    23    22    1
     2    15    14    1
     3    22    14   ar
     4    22    16   ar
     5    17    16    1
     6    21    18    1
     7    14     5   ar
     8    16    12   ar
     9    19    18    1
    10    18    20    1
    11    18     1    1
    12     7     6    1
    13     5     1    1
    14     5    10   ar
    15    12    10   ar
    16    12    13    1
    17    10     2    1
    18     6     8    1
    19     6     9    1
    20     6    11    1
    21     2    11    1
    22    11     3    1
    23     3     4    1
    24     3    32    2
    25    32    25    1
    26    32    27    1
    27    25    31    1
    28    30    27    1
    29    29    27    1
    30    27    28    1
    31    34    33    1
    32    31    33   ar
    33    31    26   ar
    34    24    26    1
    35    24    39    1
    36    41    39    1
    37    33    37   ar
    38    26    35   ar
    39    39    40    1
    40    39    42    1
    41    37    38    1
    42    37    43   ar
    43    35    43   ar
    44    35    36    1
    45    43    44    1
