@<TRIPOS>MOLECULE
1,2,3,4
 40 40 0 0 0
SMALL
GASTEIGER

@<TRIPOS>ATOM
      1 N           2.0116    3.0750   15.4706 N.3     1  UNL1       -0.2942
      2 N           2.6530    0.6744   16.6862 N.pl3   1  UNL1       -0.2438
      3 O           2.9405    3.0974   17.9874 O.3     1  UNL1       -0.2268
      4 O           4.4757    2.2434   14.7577 O.3     1  UNL1       -0.2268
      5 C           1.8624    3.9358   17.8318 C.3     1  UNL1        0.1115
      6 C           1.5870    4.1958   16.3030 C.3     1  UNL1        0.0307
      7 C           3.6656    2.5083   13.6837 C.3     1  UNL1        0.1115
      8 C           2.4863    3.4412   14.1392 C.3     1  UNL1        0.0307
      9 C           0.6100    3.3422   18.5216 C.3     1  UNL1       -0.0318
     10 C           2.1283    5.3181   18.4744 C.3     1  UNL1       -0.0318
     11 C           3.1429    1.1868   13.0685 C.3     1  UNL1       -0.0318
     12 C           4.4435    3.2705   12.5851 C.3     1  UNL1       -0.0318
     13 C           1.0280    2.0029   15.4480 C.3     1  UNL1        0.0282
     14 C           1.3735    0.8568   16.3699 C.3     1  UNL1        0.1115
     15 C           0.3631    0.0144   16.8337 C.2     1  UNL1       -0.0554
     16 C           0.6910   -1.0352   17.6715 C.2     1  UNL1       -0.0623
     17 C           2.0228   -1.2092   18.0177 C.2     1  UNL1       -0.0466
     18 C           2.9631   -0.3344   17.4975 C.2     1  UNL1        0.0125
     19 H           2.1732    5.0743   16.0173 H       1  UNL1        0.0456
     20 H           0.5195    4.4313   16.1482 H       1  UNL1        0.0456
     21 H           2.8947    4.4559   14.1860 H       1  UNL1        0.0456
     22 H           1.6724    3.4339   13.3953 H       1  UNL1        0.0456
     23 H           0.3889    2.3491   18.1416 H       1  UNL1        0.0259
     24 H           0.8122    3.2509   19.5860 H       1  UNL1        0.0259
     25 H          -0.2553    3.9872   18.3830 H       1  UNL1        0.0259
     26 H           3.0494    5.7359   18.0742 H       1  UNL1        0.0259
     27 H           2.2465    5.2011   19.5482 H       1  UNL1        0.0259
     28 H           1.2988    5.9964   18.2824 H       1  UNL1        0.0259
     29 H           2.7695    0.5307   13.8525 H       1  UNL1        0.0259
     30 H           3.9730    0.6772   12.5850 H       1  UNL1        0.0259
     31 H           2.3673    1.3679   12.3261 H       1  UNL1        0.0259
     32 H           4.8694    4.1807   13.0037 H       1  UNL1        0.0259
     33 H           5.2597    2.6493   12.2260 H       1  UNL1        0.0259
     34 H           3.7932    3.5241   11.7506 H       1  UNL1        0.0259
     35 H           0.0304    2.3845   15.7184 H       1  UNL1        0.0452
     36 H           0.9469    1.5971   14.4330 H       1  UNL1        0.0452
     37 H          -0.6623    0.1880   16.5417 H       1  UNL1        0.0595
     38 H          -0.0735   -1.6988   18.0476 H       1  UNL1        0.0616
     39 H           2.3252   -2.0102   18.6734 H       1  UNL1        0.0630
     40 H           4.0160   -0.4519   17.7202 H       1  UNL1        0.0797
@<TRIPOS>BOND
     1    34    12    1
     2    33    12    1
     3    31    11    1
     4    30    11    1
     5    12    32    1
     6    12     7    1
     7    11     7    1
     8    11    29    1
     9    22     8    1
    10     7     8    1
    11     7     4    1
    12     8    21    1
    13     8     1    1
    14    36    13    1
    15    13     1    1
    16    13    35    1
    17    13    14    1
    18     1     6    1
    19    19     6    1
    20    20     6    1
    21     6     5    1
    22    14     2    1
    23    14    15    1
    24    37    15    1
    25     2    18    1
    26    15    16    2
    27    18    40    1
    28    18    17    2
    29    16    17    1
    30    16    38    1
    31     5     3    1
    32     5    10    1
    33     5     9    1
    34    17    39    1
    35    26    10    1
    36    23     9    1
    37    28    10    1
    38    25     9    1
    39    10    27    1
    40     9    24    1
