@<TRIPOS>MOLECULE
1,2,3,4
 44 45 0 0 0
SMALL
GASTEIGER

@<TRIPOS>ATOM
      1 N          13.3810    1.2681    4.8550 N.pl3   1  UNL1       -0.2162
      2 N          11.6929    3.6504    5.0564 N.pl3   1  UNL1       -0.2341
      3 O          13.0337   -0.4638    2.8057 O.3     1  UNL1       -0.4932
      4 O           9.6389    3.8899    3.2933 O.3     1  UNL1       -0.4932
      5 C           8.5895    4.0436    2.3569 C.3     1  UNL1        0.0789
      6 H           7.6982    3.4871    2.6637 H       1  UNL1        0.0660
      7 H           8.9661    3.6370    1.4191 H       1  UNL1        0.0660
      8 H           8.3376    5.0998    2.2171 H       1  UNL1        0.0660
      9 C           9.4222    4.3822    4.5689 C.ar    1  UNL1        0.1426
     10 C          10.5106    4.2644    5.4607 C.ar    1  UNL1        0.0904
     11 C          12.9716    5.6733    5.6969 C.3     1  UNL1       -0.0359
     12 H          12.0429    6.2009    5.4933 H       1  UNL1        0.0255
     13 H          13.7658    6.1136    5.0964 H       1  UNL1        0.0255
     14 H          13.2304    5.8149    6.7451 H       1  UNL1        0.0255
     15 C          12.8594    4.2002    5.3631 C.3     1  UNL1        0.0969
     16 C          14.0688    3.5037    5.3705 C.2     1  UNL1       -0.0383
     17 H          14.9429    4.1021    5.5907 H       1  UNL1        0.0610
     18 C          14.3018    2.1298    5.2437 C.2     1  UNL1        0.0265
     19 C          15.7187    1.6868    5.5377 C.3     1  UNL1       -0.0248
     20 H          15.9232    1.7407    6.6060 H       1  UNL1        0.0290
     21 H          16.4175    2.3506    5.0320 H       1  UNL1        0.0290
     22 H          15.8924    0.6677    5.2009 H       1  UNL1        0.0290
     23 C          10.3281    4.6922    6.7774 C.ar    1  UNL1       -0.0355
     24 H          11.1398    4.5587    7.4768 H       1  UNL1        0.0638
     25 C           9.1349    5.2492    7.1960 C.ar    1  UNL1       -0.0597
     26 H           9.0224    5.5689    8.2209 H       1  UNL1        0.0618
     27 C           8.0929    5.3959    6.3015 C.ar    1  UNL1       -0.0582
     28 H           7.1599    5.8393    6.6130 H       1  UNL1        0.0619
     29 C           8.2358    4.9561    4.9926 C.ar    1  UNL1       -0.0181
     30 H           7.4030    5.0632    4.3164 H       1  UNL1        0.0655
     31 C          13.5511   -0.0950    5.0809 C.ar    1  UNL1        0.0948
     32 C          13.3243   -1.0203    4.0397 C.ar    1  UNL1        0.1429
     33 C          13.4051   -2.3791    4.2873 C.ar    1  UNL1       -0.0180
     34 H          13.2370   -3.0958    3.4994 H       1  UNL1        0.0655
     35 C          13.7045   -2.8447    5.5606 C.ar    1  UNL1       -0.0582
     36 H          13.7626   -3.9078    5.7360 H       1  UNL1        0.0619
     37 C          13.9205   -1.9510    6.5913 C.ar    1  UNL1       -0.0597
     38 H          14.1447   -2.3091    7.5847 H       1  UNL1        0.0618
     39 C          13.8459   -0.5917    6.3514 C.ar    1  UNL1       -0.0351
     40 H          13.9887    0.1126    7.1573 H       1  UNL1        0.0638
     41 C          12.9119   -1.3525    1.7130 C.3     1  UNL1        0.0789
     42 H          13.8324   -1.9272    1.5677 H       1  UNL1        0.0660
     43 H          12.7333   -0.7294    0.8376 H       1  UNL1        0.0660
     44 H          12.0682   -2.0380    1.8431 H       1  UNL1        0.0660
@<TRIPOS>BOND
     1    43    41    1
     2     7     5    1
     3    42    41    1
     4    41    44    1
     5    41     3    1
     6     8     5    1
     7     5     6    1
     8     5     4    1
     9     3    32    1
    10     4     9    1
    11    34    33    1
    12    32    33   ar
    13    32    31   ar
    14    33    35   ar
    15    30    29    1
    16     9    29   ar
    17     9    10   ar
    18     1    31    1
    19     1    18    1
    20    29    27   ar
    21    21    19    1
    22     2    15    1
    23     2    10    1
    24    31    39   ar
    25    13    11    1
    26    22    19    1
    27    18    16    2
    28    18    19    1
    29    15    16    1
    30    15    11    1
    31    16    17    1
    32    10    23   ar
    33    12    11    1
    34    19    20    1
    35    35    36    1
    36    35    37   ar
    37    11    14    1
    38    27    28    1
    39    27    25   ar
    40    39    37   ar
    41    39    40    1
    42    37    38    1
    43    23    25   ar
    44    23    24    1
    45    25    26    1
