@<TRIPOS>MOLECULE
1,2,3,4
 92 93 0 0 0
SMALL
GASTEIGER

@<TRIPOS>ATOM
      1 N           4.3388    5.3030   14.0187 N.3     1  UNL1       -0.2998
      2 N           3.6555    6.6621   11.4834 N.3     1  UNL1       -0.2998
      3 O           2.2671    4.0020   11.5762 O.3     1  UNL1       -0.2873
      4 O           1.5082    4.5987   14.7133 O.3     1  UNL1       -0.2873
      5 C           5.1938    4.1309   13.7919 C.3     1  UNL1       -0.0124
      6 H           4.7717    3.2802   14.3245 H       1  UNL1        0.0391
      7 H           6.2092    4.3098   14.1736 H       1  UNL1        0.0391
      8 H           5.2483    3.8818   12.7327 H       1  UNL1        0.0391
      9 C           5.0236    6.5137   13.5402 C.3     1  UNL1        0.0117
     10 H           6.0654    6.5329   13.9031 H       1  UNL1        0.0439
     11 H           4.5034    7.3880   13.9462 H       1  UNL1        0.0439
     12 C           5.0267    6.5962   12.0117 C.3     1  UNL1        0.0117
     13 H           5.6096    7.4754   11.7003 H       1  UNL1        0.0439
     14 H           5.5152    5.7082   11.6018 H       1  UNL1        0.0439
     15 C           3.2538    8.0641   11.3325 C.3     1  UNL1       -0.0124
     16 H           2.2133    8.1212   11.0171 H       1  UNL1        0.0391
     17 H           3.8854    8.5719   10.5882 H       1  UNL1        0.0391
     18 H           3.3367    8.5868   12.2828 H       1  UNL1        0.0391
     19 C           3.5871    6.0240   10.1473 C.3     1  UNL1        0.0274
     20 H           4.1974    6.6000    9.4328 H       1  UNL1        0.0477
     21 H           2.5410    6.0727    9.8210 H       1  UNL1        0.0477
     22 C           4.0442    4.5888   10.1360 C.ar    1  UNL1        0.0138
     23 C           3.3077    3.6243   10.8594 C.ar    1  UNL1        0.1870
     24 C           3.7122    2.2655   10.7507 C.ar    1  UNL1        0.0052
     25 C           2.9185    1.1749   11.4617 C.3     1  UNL1       -0.0090
     26 C           3.0329    1.3868   12.9775 C.3     1  UNL1       -0.0559
     27 H           2.4471    0.6391   13.5074 H       1  UNL1        0.0238
     28 H           2.6681    2.3758   13.2588 H       1  UNL1        0.0238
     29 H           4.0714    1.2878   13.2897 H       1  UNL1        0.0238
     30 C           3.4228   -0.2386   11.1479 C.3     1  UNL1       -0.0559
     31 H           2.7876   -0.9624   11.6550 H       1  UNL1        0.0238
     32 H           4.4412   -0.3872   11.5004 H       1  UNL1        0.0238
     33 H           3.3783   -0.4437   10.0807 H       1  UNL1        0.0238
     34 C           1.4487    1.2486   11.0269 C.3     1  UNL1       -0.0559
     35 H           0.8659    0.4860   11.5397 H       1  UNL1        0.0238
     36 H           1.3690    1.0853    9.9539 H       1  UNL1        0.0238
     37 H           1.0309    2.2231   11.2621 H       1  UNL1        0.0238
     38 C           4.8326    1.9674    9.9985 C.ar    1  UNL1       -0.0507
     39 H           5.1448    0.9398    9.9284 H       1  UNL1        0.0625
     40 C           5.5874    2.9206    9.3165 C.ar    1  UNL1       -0.0412
     41 C           5.1604    4.2344    9.3925 C.ar    1  UNL1       -0.0500
     42 H           5.6827    5.0168    8.8629 H       1  UNL1        0.0625
     43 C           6.8107    2.4826    8.5257 C.3     1  UNL1       -0.0127
     44 C           7.5200    3.6557    7.8432 C.3     1  UNL1       -0.0560
     45 H           8.3884    3.2887    7.2996 H       1  UNL1        0.0238
     46 H           7.8647    4.3840    8.5740 H       1  UNL1        0.0238
     47 H           6.8621    4.1482    7.1312 H       1  UNL1        0.0238
     48 C           7.8117    1.8084    9.4749 C.3     1  UNL1       -0.0560
     49 H           8.6976    1.4943    8.9266 H       1  UNL1        0.0238
     50 H           7.3774    0.9333    9.9498 H       1  UNL1        0.0238
     51 H           8.1168    2.5027   10.2555 H       1  UNL1        0.0238
     52 C           6.3800    1.4893    7.4376 C.3     1  UNL1       -0.0560
     53 H           7.2397    1.1828    6.8449 H       1  UNL1        0.0238
     54 H           5.6504    1.9519    6.7765 H       1  UNL1        0.0238
     55 H           5.9304    0.6004    7.8705 H       1  UNL1        0.0238
     56 C           2.0905    3.9038   15.6704 C.ar    1  UNL1        0.1870
     57 C           3.4090    4.2185   16.0726 C.ar    1  UNL1        0.0138
     58 C           4.1024    5.4211   15.4795 C.3     1  UNL1        0.0274
     59 H           3.4815    6.3107   15.6487 H       1  UNL1        0.0477
     60 H           5.0678    5.5653   15.9920 H       1  UNL1        0.0477
     61 C           4.0498    3.4638   17.0394 C.ar    1  UNL1       -0.0500
     62 H           5.0606    3.7354   17.3111 H       1  UNL1        0.0625
     63 C           3.4250    2.3929   17.6615 C.ar    1  UNL1       -0.0412
     64 C           2.1059    2.1324   17.3071 C.ar    1  UNL1       -0.0507
     65 H           1.5936    1.3292   17.8037 H       1  UNL1        0.0625
     66 C           1.4161    2.8562   16.3491 C.ar    1  UNL1        0.0052
     67 C           4.1852    1.5764   18.6965 C.3     1  UNL1       -0.0127
     68 C           5.4403    0.9821   18.0409 C.3     1  UNL1       -0.0560
     69 H           5.9912    0.3779   18.7590 H       1  UNL1        0.0238
     70 H           6.1021    1.7622   17.6748 H       1  UNL1        0.0238
     71 H           5.1599    0.3509   17.2003 H       1  UNL1        0.0238
     72 C           4.5924    2.4897   19.8613 C.3     1  UNL1       -0.0560
     73 H           5.1235    1.9191   20.6208 H       1  UNL1        0.0238
     74 H           3.7087    2.9326   20.3154 H       1  UNL1        0.0238
     75 H           5.2400    3.2944   19.5245 H       1  UNL1        0.0238
     76 C           3.3579    0.4209   19.2660 C.3     1  UNL1       -0.0560
     77 H           3.9576   -0.1354   19.9841 H       1  UNL1        0.0238
     78 H           3.0526   -0.2651   18.4795 H       1  UNL1        0.0238
     79 H           2.4745    0.7894   19.7817 H       1  UNL1        0.0238
     80 C          -0.0493    2.5721   16.0305 C.3     1  UNL1       -0.0090
     81 C          -0.6552    1.4836   16.9243 C.3     1  UNL1       -0.0559
     82 H          -0.6055    1.7642   17.9738 H       1  UNL1        0.0238
     83 H          -0.1537    0.5285   16.7846 H       1  UNL1        0.0238
     84 H          -1.7029    1.3501   16.6616 H       1  UNL1        0.0238
     85 C          -0.8660    3.8559   16.2411 C.3     1  UNL1       -0.0559
     86 H          -0.7519    4.2091   17.2644 H       1  UNL1        0.0238
     87 H          -1.9212    3.6629   16.0560 H       1  UNL1        0.0238
     88 H          -0.5314    4.6364   15.5627 H       1  UNL1        0.0238
     89 C          -0.1843    2.1098   14.5734 C.3     1  UNL1       -0.0559
     90 H          -1.2349    1.9922   14.3138 H       1  UNL1        0.0238
     91 H           0.3149    1.1534   14.4354 H       1  UNL1        0.0238
     92 H           0.2628    2.8371   13.8959 H       1  UNL1        0.0238
@<TRIPOS>BOND
     1    54    52    1
     2    53    52    1
     3    47    44    1
     4    45    44    1
     5    52    55    1
     6    52    43    1
     7    44    43    1
     8    44    46    1
     9    43    40    1
    10    43    48    1
    11    42    41    1
    12    49    48    1
    13    40    41   ar
    14    40    38   ar
    15    41    22   ar
    16    20    19    1
    17    48    50    1
    18    48    51    1
    19    21    19    1
    20    39    38    1
    21    36    34    1
    22    38    24   ar
    23    33    30    1
    24    22    19    1
    25    22    23   ar
    26    19     2    1
    27    17    15    1
    28    24    23   ar
    29    24    25    1
    30    23     3    1
    31    16    15    1
    32    34    37    1
    33    34    25    1
    34    34    35    1
    35    30    25    1
    36    30    32    1
    37    30    31    1
    38    15     2    1
    39    15    18    1
    40    25    26    1
    41     2    12    1
    42    14    12    1
    43    13    12    1
    44    12     9    1
    45     8     5    1
    46    26    28    1
    47    26    29    1
    48    26    27    1
    49     9    10    1
    50     9    11    1
    51     9     1    1
    52     5     1    1
    53     5     7    1
    54     5     6    1
    55    92    89    1
    56     1    58    1
    57    90    89    1
    58    91    89    1
    59    89    80    1
    60     4    56    1
    61    58    59    1
    62    58    60    1
    63    58    57    1
    64    88    85    1
    65    56    57   ar
    66    56    66   ar
    67    80    85    1
    68    80    66    1
    69    80    81    1
    70    87    85    1
    71    57    61   ar
    72    85    86    1
    73    66    64   ar
    74    84    81    1
    75    83    81    1
    76    81    82    1
    77    61    62    1
    78    61    63   ar
    79    71    68    1
    80    64    63   ar
    81    64    65    1
    82    63    67    1
    83    70    68    1
    84    68    67    1
    85    68    69    1
    86    78    76    1
    87    67    76    1
    88    67    72    1
    89    76    79    1
    90    76    77    1
    91    75    72    1
    92    72    74    1
    93    72    73    1
