@<TRIPOS>MOLECULE
3,4,5,6
 130 132 0 0 0
SMALL
GASTEIGER

@<TRIPOS>ATOM
      1 SI          2.6004   24.3373   36.2170 Si      1  UNL1        0.0000
      2 SI          6.4283   15.2875   24.0809 Si      1  UNL1        0.0000
      3 N           4.6489   18.8829   32.5159 N.3     1  UNL1        0.0000
      4 N           5.3687   17.2311   30.7188 N.3     1  UNL1        0.0000
      5 O           6.2587   20.7916   31.6969 O.3     1  UNL1        0.0000
      6 O           5.8199   19.3084   29.4137 O.3     1  UNL1        0.0000
      7 O           3.8377   24.2619   35.1437 O.3     1  UNL1        0.0000
      8 O           5.4759   16.4453   24.7628 O.3     1  UNL1        0.0000
      9 C           5.6855   21.6065   32.5125 C.ar    1  UNL1        0.0000
     10 C           6.1890   22.9340   32.7184 C.ar    1  UNL1        0.0000
     11 C           5.5229   23.7575   33.5892 C.ar    1  UNL1        0.0000
     12 C           4.3812   23.3505   34.3062 C.ar    1  UNL1        0.0000
     13 C           3.9033   22.0784   34.1504 C.ar    1  UNL1        0.0000
     14 C           4.5423   21.1846   33.2684 C.ar    1  UNL1        0.0000
     15 C           4.0822   19.8503   33.1995 C.3     1  UNL1        0.0000
     16 C           4.1190   17.5328   32.7197 C.3     1  UNL1        0.0000
     17 C           4.0286   17.0804   34.1795 C.3     1  UNL1        0.0000
     18 C           3.4769   15.6563   34.2276 C.3     1  UNL1        0.0000
     19 C           4.3345   14.6954   33.4093 C.3     1  UNL1        0.0000
     20 C           4.4696   15.1656   31.9607 C.3     1  UNL1        0.0000
     21 C           5.0613   16.5724   31.9750 C.3     1  UNL1        0.0000
     22 C           5.1884   16.6376   29.5925 C.3     1  UNL1        0.0000
     23 C           5.4300   17.2645   28.3213 C.ar    1  UNL1        0.0000
     24 C           5.3325   16.5203   27.1459 C.ar    1  UNL1        0.0000
     25 C           5.5656   17.1288   25.9299 C.ar    1  UNL1        0.0000
     26 C           5.8801   18.4871   25.8898 C.ar    1  UNL1        0.0000
     27 C           5.9854   19.2651   27.0293 C.ar    1  UNL1        0.0000
     28 C           5.7534   18.6445   28.2799 C.ar    1  UNL1        0.0000
     29 C           7.4340   23.3892   31.9718 C.3     1  UNL1        0.0000
     30 C           7.8426   24.8224   32.3268 C.3     1  UNL1        0.0000
     31 C           7.1582   23.3329   30.4641 C.3     1  UNL1        0.0000
     32 C           8.6029   22.4605   32.3313 C.3     1  UNL1        0.0000
     33 C           6.3957   20.7292   26.9699 C.3     1  UNL1        0.0000
     34 C           5.3110   21.5956   27.6248 C.3     1  UNL1        0.0000
     35 C           6.5923   21.2289   25.5352 C.3     1  UNL1        0.0000
     36 C           7.7317   20.8806   27.7122 C.3     1  UNL1        0.0000
     37 C           2.5467   22.8270   37.4164 C.3     1  UNL1        0.0000
     38 C           3.9334   22.2265   37.6574 C.3     1  UNL1        0.0000
     39 C           1.9037   23.1688   38.7616 C.3     1  UNL1        0.0000
     40 C           0.9392   24.5284   35.2573 C.3     1  UNL1        0.0000
     41 C           0.5978   23.3196   34.3863 C.3     1  UNL1        0.0000
     42 C          -0.2408   24.8482   36.1734 C.3     1  UNL1        0.0000
     43 C           3.0189   25.9812   37.1145 C.3     1  UNL1        0.0000
     44 C           4.4108   25.9568   37.7439 C.3     1  UNL1        0.0000
     45 C           2.9137   27.1773   36.1688 C.3     1  UNL1        0.0000
     46 C           6.4657   13.7144   25.1950 C.3     1  UNL1        0.0000
     47 C           7.5138   12.6855   24.7714 C.3     1  UNL1        0.0000
     48 C           5.0991   13.0364   25.3024 C.3     1  UNL1        0.0000
     49 C           5.5841   15.1335   22.3687 C.3     1  UNL1        0.0000
     50 C           4.0654   14.9919   22.4531 C.3     1  UNL1        0.0000
     51 C           6.1722   13.9971   21.5374 C.3     1  UNL1        0.0000
     52 C           8.2342   15.9361   23.9092 C.3     1  UNL1        0.0000
     53 C           8.3171   17.1647   23.0036 C.3     1  UNL1        0.0000
     54 C           8.8337   16.2690   25.2767 C.3     1  UNL1        0.0000
     55 H           5.8596   24.7639   33.7711 H       1  UNL1        0.0000
     56 H           3.0459   21.7460   34.7132 H       1  UNL1        0.0000
     57 H           3.2020   19.6207   33.7971 H       1  UNL1        0.0000
     58 H           3.1175   17.4804   32.2613 H       1  UNL1        0.0000
     59 H           3.3773   17.7378   34.7560 H       1  UNL1        0.0000
     60 H           5.0266   17.1207   34.6195 H       1  UNL1        0.0000
     61 H           2.4565   15.6542   33.8359 H       1  UNL1        0.0000
     62 H           3.4359   15.3179   35.2639 H       1  UNL1        0.0000
     63 H           5.3286   14.6314   33.8548 H       1  UNL1        0.0000
     64 H           3.8907   13.6986   33.4314 H       1  UNL1        0.0000
     65 H           5.1278   14.4814   31.4231 H       1  UNL1        0.0000
     66 H           3.4895   15.1664   31.4769 H       1  UNL1        0.0000
     67 H           6.0122   16.5448   32.5278 H       1  UNL1        0.0000
     68 H           4.8259   15.6125   29.5535 H       1  UNL1        0.0000
     69 H           5.0861   15.4715   27.1885 H       1  UNL1        0.0000
     70 H           6.0493   18.9143   24.9160 H       1  UNL1        0.0000
     71 H           8.0658   24.9167   33.3868 H       1  UNL1        0.0000
     72 H           8.7413   25.0826   31.7712 H       1  UNL1        0.0000
     73 H           7.0650   25.5339   32.0583 H       1  UNL1        0.0000
     74 H           6.9127   22.3203   30.1636 H       1  UNL1        0.0000
     75 H           6.3260   23.9866   30.2075 H       1  UNL1        0.0000
     76 H           8.0384   23.6549   29.9116 H       1  UNL1        0.0000
     77 H           8.3846   21.4298   32.0670 H       1  UNL1        0.0000
     78 H           9.5000   22.7685   31.7986 H       1  UNL1        0.0000
     79 H           8.8013   22.5041   33.4003 H       1  UNL1        0.0000
     80 H           4.3681   21.4808   27.0925 H       1  UNL1        0.0000
     81 H           5.1568   21.3153   28.6636 H       1  UNL1        0.0000
     82 H           5.6027   22.6430   27.5941 H       1  UNL1        0.0000
     83 H           7.3887   20.6849   25.0328 H       1  UNL1        0.0000
     84 H           5.6753   21.1399   24.9571 H       1  UNL1        0.0000
     85 H           6.8719   22.2800   25.5614 H       1  UNL1        0.0000
     86 H           8.4986   20.2794   27.2269 H       1  UNL1        0.0000
     87 H           8.0480   21.9211   27.7036 H       1  UNL1        0.0000
     88 H           7.6481   20.5540   28.7462 H       1  UNL1        0.0000
     89 H           1.9311   22.0433   36.9589 H       1  UNL1        0.0000
     90 H           3.8588   21.3436   38.2919 H       1  UNL1        0.0000
     91 H           4.4083   21.9364   36.7238 H       1  UNL1        0.0000
     92 H           4.5811   22.9436   38.1539 H       1  UNL1        0.0000
     93 H           1.8412   22.2805   39.3892 H       1  UNL1        0.0000
     94 H           2.4946   23.9131   39.2887 H       1  UNL1        0.0000
     95 H           0.9011   23.5651   38.6295 H       1  UNL1        0.0000
     96 H           1.0653   25.3785   34.5781 H       1  UNL1        0.0000
     97 H          -0.3322   23.4929   33.8457 H       1  UNL1        0.0000
     98 H           1.3840   23.1343   33.6588 H       1  UNL1        0.0000
     99 H           0.4680   22.4268   34.9951 H       1  UNL1        0.0000
    100 H          -1.1302   25.0759   35.5870 H       1  UNL1        0.0000
    101 H          -0.4695   23.9981   36.8115 H       1  UNL1        0.0000
    102 H          -0.0211   25.7039   36.8062 H       1  UNL1        0.0000
    103 H           2.2938   26.1330   37.9194 H       1  UNL1        0.0000
    104 H           4.6401   26.9184   38.2020 H       1  UNL1        0.0000
    105 H           4.4803   25.1924   38.5130 H       1  UNL1        0.0000
    106 H           5.1621   25.7502   36.9863 H       1  UNL1        0.0000
    107 H           3.1792   28.0978   36.6875 H       1  UNL1        0.0000
    108 H           3.5904   27.0511   35.3279 H       1  UNL1        0.0000
    109 H           1.9029   27.2842   35.7845 H       1  UNL1        0.0000
    110 H           6.7396   14.0522   26.2024 H       1  UNL1        0.0000
    111 H           7.5094   11.8378   25.4556 H       1  UNL1        0.0000
    112 H           7.3084   12.3134   23.7715 H       1  UNL1        0.0000
    113 H           8.5099   13.1189   24.7751 H       1  UNL1        0.0000
    114 H           5.1111   12.2675   26.0746 H       1  UNL1        0.0000
    115 H           4.3216   13.7573   25.5446 H       1  UNL1        0.0000
    116 H           4.8388   12.5590   24.3611 H       1  UNL1        0.0000
    117 H           5.7823   16.0666   21.8311 H       1  UNL1        0.0000
    118 H           3.6251   15.0345   21.4576 H       1  UNL1        0.0000
    119 H           3.7878   14.0437   22.9043 H       1  UNL1        0.0000
    120 H           3.6435   15.7935   23.0522 H       1  UNL1        0.0000
    121 H           5.7563   14.0032   20.5307 H       1  UNL1        0.0000
    122 H           7.2527   14.0889   21.4614 H       1  UNL1        0.0000
    123 H           5.9412   13.0349   21.9875 H       1  UNL1        0.0000
    124 H           8.8589   15.1600   23.4568 H       1  UNL1        0.0000
    125 H           9.3393   17.5391   22.9615 H       1  UNL1        0.0000
    126 H           8.0018   16.9246   21.9917 H       1  UNL1        0.0000
    127 H           7.6803   17.9605   23.3814 H       1  UNL1        0.0000
    128 H           9.8591   16.6208   25.1691 H       1  UNL1        0.0000
    129 H           8.2575   17.0501   25.7682 H       1  UNL1        0.0000
    130 H           8.8423   15.3972   25.9259 H       1  UNL1        0.0000
@<TRIPOS>BOND
     1   121    51    1
     2   118    50    1
     3   122    51    1
     4    51   123    1
     5    51    49    1
     6   117    49    1
     7   126    53    1
     8    49    50    1
     9    49     2    1
    10    50   119    1
    11    50   120    1
    12   125    53    1
    13    53   127    1
    14    53    52    1
    15   124    52    1
    16   112    47    1
    17    52     2    1
    18    52    54    1
    19     2     8    1
    20     2    46    1
    21   116    48    1
    22     8    25    1
    23    47   113    1
    24    47    46    1
    25    47   111    1
    26    70    26    1
    27    84    35    1
    28    83    35    1
    29   128    54    1
    30    46    48    1
    31    46   110    1
    32    54   129    1
    33    54   130    1
    34    48   115    1
    35    48   114    1
    36    35    85    1
    37    35    33    1
    38    26    25   ar
    39    26    27   ar
    40    25    24   ar
    41    33    27    1
    42    33    34    1
    43    33    36    1
    44    27    28   ar
    45    80    34    1
    46    24    69    1
    47    24    23   ar
    48    86    36    1
    49    82    34    1
    50    34    81    1
    51    87    36    1
    52    36    88    1
    53    28    23   ar
    54    28     6    1
    55    23    22    1
    56    68    22    1
    57    22     4    1
    58    76    31    1
    59    74    31    1
    60    75    31    1
    61    31    29    1
    62     4    21    1
    63    65    20    1
    64    66    20    1
    65     5     9    1
    66    72    30    1
    67    78    32    1
    68    20    21    1
    69    20    19    1
    70    29    30    1
    71    29    32    1
    72    29    10    1
    73    21    67    1
    74    21    16    1
    75    73    30    1
    76    77    32    1
    77    58    16    1
    78    30    71    1
    79    32    79    1
    80     9    10   ar
    81     9    14   ar
    82     3    16    1
    83     3    15    1
    84    10    11   ar
    85    16    17    1
    86    15    14    1
    87    15    57    1
    88    14    13   ar
    89    19    64    1
    90    19    63    1
    91    19    18    1
    92    11    55    1
    93    11    12   ar
    94    98    41    1
    95    61    18    1
    96    97    41    1
    97    13    12   ar
    98    13    56    1
    99    17    18    1
   100    17    60    1
   101    17    59    1
   102    18    62    1
   103    12     7    1
   104    41    99    1
   105    41    40    1
   106    96    40    1
   107     7     1    1
   108    40    42    1
   109    40     1    1
   110   108    45    1
   111   100    42    1
   112   109    45    1
   113    45   107    1
   114    45    43    1
   115    42   102    1
   116    42   101    1
   117     1    43    1
   118     1    37    1
   119    91    38    1
   120    89    37    1
   121   106    44    1
   122    43    44    1
   123    43   103    1
   124    37    38    1
   125    37    39    1
   126    38    92    1
   127    38    90    1
   128    44   104    1
   129    44   105    1
   130    95    39    1
   131    39    94    1
   132    39    93    1
