@<TRIPOS>MOLECULE
1,2,3
 37 40 0 0 0
SMALL
GASTEIGER

@<TRIPOS>ATOM
      1 SI          4.2297    2.3871    3.5324 Si      1  UNL1        0.0000
      2 N           3.1312    3.6551    1.0683 N.pl3   1  UNL1        0.0000
      3 N           5.8890    2.6620    1.0716 N.pl3   1  UNL1        0.0000
      4 C           2.8819    4.3002   -0.0479 C.2     1  UNL1        0.0000
      5 C           1.7096    4.1311   -0.7937 C.2     1  UNL1        0.0000
      6 C           0.7570    3.2627   -0.3336 C.2     1  UNL1        0.0000
      7 C           1.0007    2.5391    0.8505 C.2     1  UNL1        0.0000
      8 C           0.0708    1.6283    1.3902 C.3     1  UNL1        0.0000
      9 C           0.3618    0.9483    2.5392 C.2     1  UNL1        0.0000
     10 C           1.5917    1.1421    3.1851 C.2     1  UNL1        0.0000
     11 C           2.5272    2.0219    2.7047 C.2     1  UNL1        0.0000
     12 C           2.2305    2.7497    1.5284 C.2     1  UNL1        0.0000
     13 C           6.4219    2.9608   -0.0886 C.2     1  UNL1        0.0000
     14 C           7.2363    2.0827   -0.8166 C.2     1  UNL1        0.0000
     15 C           7.5158    0.8526   -0.2873 C.2     1  UNL1        0.0000
     16 C           6.9376    0.4881    0.9457 C.2     1  UNL1        0.0000
     17 C           7.1655   -0.7633    1.5534 C.3     1  UNL1        0.0000
     18 C           6.5623   -1.0702    2.7408 C.2     1  UNL1        0.0000
     19 C           5.6927   -0.1535    3.3509 C.2     1  UNL1        0.0000
     20 C           5.4408    1.0775    2.8023 C.2     1  UNL1        0.0000
     21 C           6.0918    1.4269    1.5962 C.2     1  UNL1        0.0000
     22 C           4.0987    2.1155    5.4304 C.3     1  UNL1        0.0000
     23 H           3.6354    5.0067   -0.3836 H       1  UNL1        0.0000
     24 H           1.5655    4.6978   -1.7004 H       1  UNL1        0.0000
     25 H          -0.1767    3.1225   -0.8590 H       1  UNL1        0.0000
     26 H          -0.8704    1.4835    0.8796 H       1  UNL1        0.0000
     27 H          -0.3537    0.2538    2.9558 H       1  UNL1        0.0000
     28 H           1.7988    0.5844    4.0861 H       1  UNL1        0.0000
     29 H           6.2192    3.9493   -0.4855 H       1  UNL1        0.0000
     30 H           7.6444    2.3975   -1.7643 H       1  UNL1        0.0000
     31 H           8.1649    0.1541   -0.7964 H       1  UNL1        0.0000
     32 H           7.8210   -1.4680    1.0617 H       1  UNL1        0.0000
     33 H           6.7425   -2.0265    3.2106 H       1  UNL1        0.0000
     34 H           5.2116   -0.4316    4.2763 H       1  UNL1        0.0000
     35 H           3.7703    1.1074    5.6612 H       1  UNL1        0.0000
     36 H           5.0601    2.2741    5.9044 H       1  UNL1        0.0000
     37 H           3.3913    2.8066    5.8722 H       1  UNL1        0.0000
@<TRIPOS>BOND
     1    30    14    1
     2    24     5    1
     3    25     6    1
     4    14    15    1
     5    14    13    2
     6    31    15    1
     7     5     6    1
     8     5     4    2
     9    29    13    1
    10    23     4    1
    11     6     7    2
    12    15    16    2
    13    13     3    1
    14     4     2    1
    15     7     8    1
    16     7    12    1
    17    26     8    1
    18    16    17    1
    19    16    21    1
    20    32    17    1
    21     2    12    1
    22     3    21    1
    23     8     9    1
    24    12    11    2
    25    17    18    1
    26    21    20    2
    27     9    27    1
    28     9    10    2
    29    11    10    1
    30    11     1    1
    31    18    33    1
    32    18    19    2
    33    20    19    1
    34    20     1    1
    35    10    28    1
    36    19    34    1
    37     1    22    1
    38    22    35    1
    39    22    37    1
    40    22    36    1
