@<TRIPOS>MOLECULE
1,2,3
 37 40 0 0 0
SMALL
GASTEIGER

@<TRIPOS>ATOM
      1 SI         -2.9216    4.4030    4.3233 Si      1  UNL1        0.0000
      2 N          -0.5722    5.5672    2.8957 N.pl3   1  UNL1        0.0000
      3 N          -0.7546    2.6869    3.2669 N.pl3   1  UNL1        0.0000
      4 C           0.5719    5.8538    2.3157 C.2     1  UNL1        0.0000
      5 C           0.6915    6.7511    1.2475 C.2     1  UNL1        0.0000
      6 C          -0.4255    7.3858    0.7820 C.2     1  UNL1        0.0000
      7 C          -1.6719    7.0880    1.3678 C.2     1  UNL1        0.0000
      8 C          -2.8685    7.7071    0.9535 C.3     1  UNL1        0.0000
      9 C          -4.0559    7.3906    1.5523 C.2     1  UNL1        0.0000
     10 C          -4.0953    6.4235    2.5659 C.2     1  UNL1        0.0000
     11 C          -2.9583    5.7925    3.0007 C.2     1  UNL1        0.0000
     12 C          -1.7161    6.1397    2.4244 C.2     1  UNL1        0.0000
     13 C           0.3591    2.0819    2.9198 C.2     1  UNL1        0.0000
     14 C           0.3843    0.9013    2.1651 C.2     1  UNL1        0.0000
     15 C          -0.7971    0.3371    1.7705 C.2     1  UNL1        0.0000
     16 C          -2.0082    0.9614    2.1301 C.2     1  UNL1        0.0000
     17 C          -3.2687    0.4377    1.7778 C.3     1  UNL1        0.0000
     18 C          -4.4144    1.0723    2.1690 C.2     1  UNL1        0.0000
     19 C          -4.3462    2.2542    2.9202 C.2     1  UNL1        0.0000
     20 C          -3.1444    2.8068    3.2812 C.2     1  UNL1        0.0000
     21 C          -1.9507    2.1587    2.8921 C.2     1  UNL1        0.0000
     22 C          -4.4117    4.5881    5.5111 C.3     1  UNL1        0.0000
     23 H           1.4569    5.3813    2.7285 H       1  UNL1        0.0000
     24 H           1.6668    6.9379    0.8277 H       1  UNL1        0.0000
     25 H          -0.3747    8.1084   -0.0197 H       1  UNL1        0.0000
     26 H          -2.8229    8.4360    0.1573 H       1  UNL1        0.0000
     27 H          -4.9701    7.8734    1.2392 H       1  UNL1        0.0000
     28 H          -5.0438    6.1694    3.0131 H       1  UNL1        0.0000
     29 H           1.2886    2.5314    3.2577 H       1  UNL1        0.0000
     30 H           1.3351    0.4554    1.9201 H       1  UNL1        0.0000
     31 H          -0.8225   -0.5791    1.1980 H       1  UNL1        0.0000
     32 H          -3.3063   -0.4752    1.2014 H       1  UNL1        0.0000
     33 H          -5.3792    0.6656    1.9035 H       1  UNL1        0.0000
     34 H          -5.2639    2.7358    3.2212 H       1  UNL1        0.0000
     35 H          -4.3972    5.5490    6.0131 H       1  UNL1        0.0000
     36 H          -5.3443    4.5037    4.9629 H       1  UNL1        0.0000
     37 H          -4.3943    3.8131    6.2683 H       1  UNL1        0.0000
@<TRIPOS>BOND
     1    25     6    1
     2    26     8    1
     3     6     5    1
     4     6     7    2
     5    24     5    1
     6     8     7    1
     7     8     9    1
     8    31    15    1
     9    32    17    1
    10    27     9    1
    11     5     4    2
    12     7    12    1
    13     9    10    2
    14    15    16    2
    15    15    14    1
    16    17    16    1
    17    17    18    1
    18    33    18    1
    19    30    14    1
    20    16    21    1
    21    14    13    2
    22    18    19    2
    23     4    23    1
    24     4     2    1
    25    12     2    1
    26    12    11    2
    27    10    11    1
    28    10    28    1
    29    21     3    1
    30    21    20    2
    31    13    29    1
    32    13     3    1
    33    19    34    1
    34    19    20    1
    35    11     1    1
    36    20     1    1
    37     1    22    1
    38    36    22    1
    39    22    35    1
    40    22    37    1
