@<TRIPOS>MOLECULE
1,2,3
 27 28 0 0 0
SMALL
GASTEIGER

@<TRIPOS>ATOM
      1 SI          6.4719    2.0891    2.3785 Si      1  UNL1        0.0000
      2 N           7.2183    4.3389    0.7283 N.pl3   1  UNL1        0.0000
      3 N           6.0194    2.0064   -0.4487 N.pl3   1  UNL1        0.0000
      4 O           6.2166    3.7471    2.7025 O.3     1  UNL1        0.0000
      5 O           4.9870    1.7285    1.5874 O.3     1  UNL1        0.0000
      6 C           6.1464    1.3608    4.1003 C.3     1  UNL1        0.0000
      7 H           6.9089    1.6744    4.8026 H       1  UNL1        0.0000
      8 H           6.1493    0.2791    4.0600 H       1  UNL1        0.0000
      9 H           5.1822    1.6864    4.4767 H       1  UNL1        0.0000
     10 C           6.5032    4.6704    1.8071 C.3     1  UNL1        0.0000
     11 C           6.0575    5.9819    2.0068 C.2     1  UNL1        0.0000
     12 H           5.4886    6.2026    2.8951 H       1  UNL1        0.0000
     13 C           6.3562    6.9416    1.0641 C.2     1  UNL1        0.0000
     14 H           6.0202    7.9591    1.1988 H       1  UNL1        0.0000
     15 C           7.0925    6.5800   -0.0581 C.2     1  UNL1        0.0000
     16 H           7.3445    7.2990   -0.8200 H       1  UNL1        0.0000
     17 C           7.5024    5.2687   -0.1772 C.2     1  UNL1        0.0000
     18 H           8.0851    4.9234   -1.0224 H       1  UNL1        0.0000
     19 C           4.9074    1.8081    0.2831 C.3     1  UNL1        0.0000
     20 C           3.6536    1.6899   -0.3292 C.2     1  UNL1        0.0000
     21 H           2.7955    1.5296    0.3029 H       1  UNL1        0.0000
     22 C           3.5524    1.7821   -1.6987 C.2     1  UNL1        0.0000
     23 H           2.5915    1.6936   -2.1825 H       1  UNL1        0.0000
     24 C           4.7088    1.9915   -2.4413 C.2     1  UNL1        0.0000
     25 H           4.6793    2.0714   -3.5152 H       1  UNL1        0.0000
     26 C           5.9115    2.0917   -1.7775 C.2     1  UNL1        0.0000
     27 H           6.8394    2.2535   -2.3117 H       1  UNL1        0.0000
@<TRIPOS>BOND
     1    25    24    1
     2    24    26    2
     3    24    22    1
     4    27    26    1
     5    23    22    1
     6    26     3    1
     7    22    20    2
     8    18    17    1
     9    16    15    1
    10     3    19    1
    11    20    19    1
    12    20    21    1
    13    17    15    2
    14    17     2    1
    15    15    13    1
    16    19     5    1
    17     2    10    1
    18    13    14    1
    19    13    11    2
    20     5     1    1
    21    10    11    1
    22    10     4    1
    23    11    12    1
    24     1     4    1
    25     1     6    1
    26     8     6    1
    27     6     9    1
    28     6     7    1
