@<TRIPOS>MOLECULE
1,4,5
 27 28 0 0 0
SMALL
GASTEIGER

@<TRIPOS>ATOM
      1 SI          2.1863    2.6823    7.6096 Si      1  UNL1        0.0000
      2 O           1.5439    3.0749    6.0609 O.3     1  UNL1        0.0000
      3 O           1.2077    3.7162    8.5721 O.3     1  UNL1        0.0000
      4 N           0.0018    1.3829    6.2168 N.pl3   1  UNL1        0.0000
      5 N          -0.1908    1.9485    9.0219 N.pl3   1  UNL1        0.0000
      6 C           0.4435    2.5038    5.6287 C.3     1  UNL1        0.0000
      7 C          -0.2409    3.0770    4.5487 C.2     1  UNL1        0.0000
      8 C          -1.4054    2.4946    4.1022 C.2     1  UNL1        0.0000
      9 C          -1.8766    1.3567    4.7471 C.2     1  UNL1        0.0000
     10 C          -1.1419    0.8420    5.7939 C.2     1  UNL1        0.0000
     11 H          -1.4690   -0.0416    6.3307 H       1  UNL1        0.0000
     12 C           0.1044    3.2566    9.1056 C.3     1  UNL1        0.0000
     13 C          -0.7527    4.1530    9.7570 C.2     1  UNL1        0.0000
     14 C          -1.9185    3.6913   10.3232 C.2     1  UNL1        0.0000
     15 C          -2.2115    2.3358   10.2319 C.2     1  UNL1        0.0000
     16 C          -1.3224    1.5093    9.5803 C.2     1  UNL1        0.0000
     17 C           3.7817    3.7134    7.5331 C.3     1  UNL1        0.0000
     18 H           0.1669    3.9682    4.1005 H       1  UNL1        0.0000
     19 H          -1.9447    2.9217    3.2698 H       1  UNL1        0.0000
     20 H          -2.7919    0.8770    4.4416 H       1  UNL1        0.0000
     21 H          -0.4658    5.1913    9.7934 H       1  UNL1        0.0000
     22 H          -3.1108    1.9259   10.6609 H       1  UNL1        0.0000
     23 H          -2.5882    4.3714   10.8277 H       1  UNL1        0.0000
     24 H          -1.5139    0.4465    9.4879 H       1  UNL1        0.0000
     25 H           4.4293    3.3693    6.7361 H       1  UNL1        0.0000
     26 H           4.3227    3.6427    8.4680 H       1  UNL1        0.0000
     27 H           3.5448    4.7567    7.3537 H       1  UNL1        0.0000
@<TRIPOS>BOND
     1    19     8    1
     2    18     7    1
     3     8     7    2
     4     8     9    1
     5    20     9    1
     6     7     6    1
     7     9    10    2
     8     6     2    1
     9     6     4    1
    10    10     4    1
    11    10    11    1
    12     2     1    1
    13    25    17    1
    14    27    17    1
    15    17     1    1
    16    17    26    1
    17     1     3    1
    18     3    12    1
    19     5    12    1
    20     5    16    1
    21    12    13    1
    22    24    16    1
    23    16    15    2
    24    13    21    1
    25    13    14    2
    26    15    14    1
    27    15    22    1
    28    14    23    1
