@<TRIPOS>MOLECULE
1,2,3
 62 63 0 0 0
SMALL
GASTEIGER

@<TRIPOS>ATOM
      1 SI          3.9360    2.8672    2.0031 Si      1  UNL1        0.0000
      2 N           3.0234    6.1809    3.3649 N.pl3   1  UNL1        0.0000
      3 N           1.9653    4.7573    1.0804 N.pl3   1  UNL1        0.0000
      4 C           3.7495    8.4606    2.8360 C.3     1  UNL1        0.0000
      5 H           2.9413    9.0323    3.2918 H       1  UNL1        0.0000
      6 H           4.1079    9.0079    1.9683 H       1  UNL1        0.0000
      7 H           4.5524    8.3927    3.5673 H       1  UNL1        0.0000
      8 C           3.2522    7.0903    2.4361 C.3     1  UNL1        0.0000
      9 C           3.0352    6.8991    1.0695 C.2     1  UNL1        0.0000
     10 H           3.3366    7.7101    0.4239 H       1  UNL1        0.0000
     11 C           2.4162    5.8217    0.4466 C.2     1  UNL1        0.0000
     12 C           2.1994    5.9200   -1.0435 C.3     1  UNL1        0.0000
     13 H           2.4348    4.9754   -1.5303 H       1  UNL1        0.0000
     14 H           2.8166    6.7054   -1.4711 H       1  UNL1        0.0000
     15 H           1.1555    6.1474   -1.2576 H       1  UNL1        0.0000
     16 C           3.1581    6.6261    4.7038 C.ar    1  UNL1        0.0000
     17 C           4.3821    6.4780    5.3732 C.ar    1  UNL1        0.0000
     18 C           4.5287    6.9936    6.6493 C.ar    1  UNL1        0.0000
     19 H           5.4806    6.8948    7.1512 H       1  UNL1        0.0000
     20 C           3.4784    7.6346    7.2806 C.ar    1  UNL1        0.0000
     21 H           3.6060    8.0368    8.2748 H       1  UNL1        0.0000
     22 C           2.2689    7.7637    6.6277 C.ar    1  UNL1        0.0000
     23 H           1.4432    8.2678    7.1109 H       1  UNL1        0.0000
     24 C           2.0968    7.2855    5.3359 C.ar    1  UNL1        0.0000
     25 C           0.7893    7.5341    4.6391 C.3     1  UNL1        0.0000
     26 H          -0.0395    7.1584    5.2385 H       1  UNL1        0.0000
     27 H           0.7635    7.0557    3.6620 H       1  UNL1        0.0000
     28 H           0.6378    8.6051    4.4961 H       1  UNL1        0.0000
     29 C           5.5220    5.7942    4.6866 C.3     1  UNL1        0.0000
     30 H           6.2770    5.4873    5.4060 H       1  UNL1        0.0000
     31 H           5.9925    6.4566    3.9587 H       1  UNL1        0.0000
     32 H           5.1484    4.9229    4.1500 H       1  UNL1        0.0000
     33 C           1.2748    3.7656    0.3438 C.ar    1  UNL1        0.0000
     34 C          -0.1008    3.8768    0.1245 C.ar    1  UNL1        0.0000
     35 C          -0.7585    2.8616   -0.5578 C.ar    1  UNL1        0.0000
     36 H          -1.8228    2.9465   -0.7266 H       1  UNL1        0.0000
     37 C          -0.0723    1.7510   -1.0091 C.ar    1  UNL1        0.0000
     38 H          -0.5976    0.9663   -1.5337 H       1  UNL1        0.0000
     39 C           1.2887    1.6435   -0.7821 C.ar    1  UNL1        0.0000
     40 H           1.8247    0.7715   -1.1294 H       1  UNL1        0.0000
     41 C           1.9808    2.6447   -0.1198 C.ar    1  UNL1        0.0000
     42 C          -0.8786    5.0577    0.6321 C.3     1  UNL1        0.0000
     43 H          -0.3048    5.6126    1.3735 H       1  UNL1        0.0000
     44 H          -1.8126    4.7267    1.0835 H       1  UNL1        0.0000
     45 H          -1.1248    5.7379   -0.1850 H       1  UNL1        0.0000
     46 C           3.4418    2.5494    0.1369 C.3     1  UNL1        0.0000
     47 H           3.9572    3.3085   -0.4526 H       1  UNL1        0.0000
     48 H           3.8087    1.5784   -0.1913 H       1  UNL1        0.0000
     49 C           4.0853    1.1293    2.8549 C.3     1  UNL1        0.0000
     50 H           4.1659    1.2546    3.9341 H       1  UNL1        0.0000
     51 H           3.1606    0.5801    2.6842 H       1  UNL1        0.0000
     52 C           5.7627    3.5279    1.8363 C.3     1  UNL1        0.0000
     53 H           6.2474    3.5593    2.8110 H       1  UNL1        0.0000
     54 H           6.3061    2.7874    1.2477 H       1  UNL1        0.0000
     55 C           5.2618    0.2955    2.3678 C.3     1  UNL1        0.0000
     56 H           5.2238    0.1609    1.2898 H       1  UNL1        0.0000
     57 H           5.2473   -0.6898    2.8319 H       1  UNL1        0.0000
     58 H           6.2048    0.7732    2.6193 H       1  UNL1        0.0000
     59 C           5.9070    4.8833    1.1581 C.3     1  UNL1        0.0000
     60 H           5.5217    4.8498    0.1419 H       1  UNL1        0.0000
     61 H           6.9543    5.1809    1.1107 H       1  UNL1        0.0000
     62 H           5.3537    5.6462    1.6957 H       1  UNL1        0.0000
@<TRIPOS>BOND
     1    38    37    1
     2    13    12    1
     3    14    12    1
     4    15    12    1
     5    40    39    1
     6    12    11    1
     7    37    39   ar
     8    37    35   ar
     9    39    41   ar
    10    36    35    1
    11    35    34   ar
    12    47    46    1
    13    48    46    1
    14    45    42    1
    15    41    46    1
    16    41    33   ar
    17    34    33   ar
    18    34    42    1
    19    46     1    1
    20    60    59    1
    21    33     3    1
    22    10     9    1
    23    11     9    2
    24    11     3    1
    25    42    44    1
    26    42    43    1
    27     9     8    1
    28    61    59    1
    29    59    62    1
    30    59    52    1
    31    54    52    1
    32    56    55    1
    33    52     1    1
    34    52    53    1
    35     6     4    1
    36     1    49    1
    37    55    58    1
    38    55    57    1
    39    55    49    1
    40     8     4    1
    41     8     2    1
    42    51    49    1
    43     4     5    1
    44     4     7    1
    45    49    50    1
    46     2    16    1
    47    27    25    1
    48    31    29    1
    49    32    29    1
    50    28    25    1
    51    25    26    1
    52    25    24    1
    53    29    17    1
    54    29    30    1
    55    16    24   ar
    56    16    17   ar
    57    24    22   ar
    58    17    18   ar
    59    22    23    1
    60    22    20   ar
    61    18    19    1
    62    18    20   ar
    63    20    21    1
