@<TRIPOS>MOLECULE
1,4,5
 33 34 0 0 0
SMALL
GASTEIGER

@<TRIPOS>ATOM
      1 SI         14.8110    6.4398   11.4292 Si      1  UNL1        0.0000
      2 O          13.4301    5.4256   11.4783 O.3     1  UNL1        0.0000
      3 O          15.5212    5.9341    9.9681 O.3     1  UNL1        0.0000
      4 N          12.1780    7.1476   10.6178 N.pl3   1  UNL1        0.0000
      5 N          14.3784    7.5468    8.8112 N.pl3   1  UNL1        0.0000
      6 C          15.9523    5.6040   12.6958 C.3     1  UNL1        0.0000
      7 H          15.6197    5.8144   13.7036 H       1  UNL1        0.0000
      8 H          16.9703    5.9576   12.5936 H       1  UNL1        0.0000
      9 H          15.9482    4.5288   12.5508 H       1  UNL1        0.0000
     10 C          12.2888    5.8618   10.9933 C.3     1  UNL1        0.0000
     11 C          11.2135    4.9790   10.8734 C.2     1  UNL1        0.0000
     12 H          11.3586    3.9600   11.1944 H       1  UNL1        0.0000
     13 C          10.0074    5.4142   10.3567 C.2     1  UNL1        0.0000
     14 C           9.9221    6.7531    9.9660 C.2     1  UNL1        0.0000
     15 H           9.0092    7.1500    9.5532 H       1  UNL1        0.0000
     16 C          11.0147    7.5729   10.1181 C.2     1  UNL1        0.0000
     17 H          10.9768    8.6136    9.8322 H       1  UNL1        0.0000
     18 C           8.8332    4.5023   10.2263 C.3     1  UNL1        0.0000
     19 H           9.1005    3.4793   10.4751 H       1  UNL1        0.0000
     20 H           8.4416    4.5329    9.2112 H       1  UNL1        0.0000
     21 H           8.0382    4.8288   10.8954 H       1  UNL1        0.0000
     22 C          15.1454    6.4540    8.8118 C.3     1  UNL1        0.0000
     23 C          15.5615    5.8542    7.6217 C.2     1  UNL1        0.0000
     24 H          16.1856    4.9770    7.6814 H       1  UNL1        0.0000
     25 C          15.1700    6.3893    6.4078 C.2     1  UNL1        0.0000
     26 C          14.3546    7.5235    6.4329 C.2     1  UNL1        0.0000
     27 H          14.0142    7.9808    5.5182 H       1  UNL1        0.0000
     28 C          13.9933    8.0584    7.6474 C.2     1  UNL1        0.0000
     29 H          13.3685    8.9347    7.7105 H       1  UNL1        0.0000
     30 C          15.5981    5.7861    5.1107 C.3     1  UNL1        0.0000
     31 H          16.1833    6.5065    4.5407 H       1  UNL1        0.0000
     32 H          14.7265    5.5241    4.5128 H       1  UNL1        0.0000
     33 H          16.1980    4.8948    5.2716 H       1  UNL1        0.0000
@<TRIPOS>BOND
     1    32    30    1
     2    31    30    1
     3    30    33    1
     4    30    25    1
     5    27    26    1
     6    25    26    1
     7    25    23    2
     8    26    28    2
     9    23    24    1
    10    23    22    1
    11    28    29    1
    12    28     5    1
    13     5    22    1
    14    22     3    1
    15    20    18    1
    16    15    14    1
    17    17    16    1
    18    14    16    2
    19    14    13    1
    20     3     1    1
    21    16     4    1
    22    18    13    1
    23    18    19    1
    24    18    21    1
    25    13    11    2
    26     4    10    1
    27    11    10    1
    28    11    12    1
    29    10     2    1
    30     1     2    1
    31     1     6    1
    32     9     6    1
    33     8     6    1
    34     6     7    1
