@<TRIPOS>MOLECULE
3,5,7
 104 107 0 0 0
SMALL
GASTEIGER

@<TRIPOS>ATOM
      1 P           9.0975   13.6801   13.5884 P.3     1  UNL1        0.0000
      2 P           6.1995   10.4857   10.4564 P.3     1  UNL1        0.0000
      3 SI          8.9015    9.3893   11.1701 Si      1  UNL1        0.0000
      4 H           9.4600    8.3281   10.2659 H       1  UNL1        0.0000
      5 N           7.7096   11.9745   12.1425 N.ar    1  UNL1        0.0000
      6 N           7.1516    9.1760   10.5090 N.pl3   1  UNL1        0.0000
      7 N           9.9453   13.6519   12.2358 N.pl3   1  UNL1        0.0000
      8 C           6.4777   11.4663   11.9092 C.ar    1  UNL1        0.0000
      9 C           7.5940   12.8138   13.1964 C.ar    1  UNL1        0.0000
     10 C           6.2782   12.8453   13.6544 C.ar    1  UNL1        0.0000
     11 H           5.8908   13.4035   14.4862 H       1  UNL1        0.0000
     12 C          13.5126   14.6036   11.9060 C.ar    1  UNL1        0.0000
     13 H          14.4833   14.1340   11.9880 H       1  UNL1        0.0000
     14 C           6.4284    5.6615    8.3057 C.ar    1  UNL1        0.0000
     15 C          12.3801   13.8509   12.1410 C.ar    1  UNL1        0.0000
     16 H          12.4704   12.8021   12.3919 H       1  UNL1        0.0000
     17 C           6.3437    6.9037    7.6932 C.ar    1  UNL1        0.0000
     18 H           6.0991    6.9660    6.6416 H       1  UNL1        0.0000
     19 C           6.5761    8.0691    8.4015 C.ar    1  UNL1        0.0000
     20 H           6.5322    9.0257    7.9000 H       1  UNL1        0.0000
     21 C          11.1103   14.4177   12.0464 C.ar    1  UNL1        0.0000
     22 C           6.8889    8.0235    9.7542 C.ar    1  UNL1        0.0000
     23 C           5.5592   11.9971   12.8218 C.ar    1  UNL1        0.0000
     24 C           6.7650    5.6215    9.6550 C.ar    1  UNL1        0.0000
     25 H           6.8495    4.6716   10.1613 H       1  UNL1        0.0000
     26 C           8.6819   15.4155   14.1268 C.3     1  UNL1        0.0000
     27 H           9.6188   15.9796   14.0173 H       1  UNL1        0.0000
     28 C           6.9938    6.7785   10.3706 C.ar    1  UNL1        0.0000
     29 H           7.2567    6.7364   11.4164 H       1  UNL1        0.0000
     30 C           7.6146    8.4618   13.6116 C.ar    1  UNL1        0.0000
     31 H           6.7261    8.9366   13.2174 H       1  UNL1        0.0000
     32 C          13.4285   15.9485   11.5688 C.ar    1  UNL1        0.0000
     33 C           8.7712    8.4626   12.8409 C.ar    1  UNL1        0.0000
     34 C           6.1693    4.3983    7.5226 C.3     1  UNL1        0.0000
     35 H           5.9382    4.6796    6.4887 H       1  UNL1        0.0000
     36 C           9.8438   12.8345   15.0883 C.3     1  UNL1        0.0000
     37 H           9.1557   12.9822   15.9277 H       1  UNL1        0.0000
     38 C          11.0254   15.7628   11.6916 C.ar    1  UNL1        0.0000
     39 H          10.0538   16.2207   11.5758 H       1  UNL1        0.0000
     40 C           6.4427   11.6255    8.9882 C.3     1  UNL1        0.0000
     41 H           5.8765   11.1976    8.1509 H       1  UNL1        0.0000
     42 C           9.9071    7.8673   13.3786 C.ar    1  UNL1        0.0000
     43 H          10.8180    7.8755   12.7980 H       1  UNL1        0.0000
     44 C           7.9123   11.7032    8.5970 C.3     1  UNL1        0.0000
     45 H           8.5201   12.1084    9.4283 H       1  UNL1        0.0000
     46 H           8.0330   12.3524    7.7312 H       1  UNL1        0.0000
     47 H           8.3038   10.7170    8.3506 H       1  UNL1        0.0000
     48 C           9.8841    7.2712   14.6258 C.ar    1  UNL1        0.0000
     49 H          10.7765    6.8061   15.0214 H       1  UNL1        0.0000
     50 C           4.4009   10.0330   10.5059 C.3     1  UNL1        0.0000
     51 H           3.9041   10.9626   10.8135 H       1  UNL1        0.0000
     52 C          11.1986   13.4534   15.4108 C.3     1  UNL1        0.0000
     53 H          11.9012   13.2626   14.6029 H       1  UNL1        0.0000
     54 H          11.6038   13.0252   16.3269 H       1  UNL1        0.0000
     55 H          11.1213   14.5326   15.5411 H       1  UNL1        0.0000
     56 C           7.5787    7.8700   14.8613 C.ar    1  UNL1        0.0000
     57 H           6.6645    7.8783   15.4402 H       1  UNL1        0.0000
     58 C           4.2062    8.9788   11.5914 C.3     1  UNL1        0.0000
     59 H           4.7072    8.0528   11.3145 H       1  UNL1        0.0000
     60 H           3.1462    8.7691   11.7280 H       1  UNL1        0.0000
     61 H           4.6136    9.3216   12.5405 H       1  UNL1        0.0000
     62 C           7.6583   15.9567   13.1304 C.3     1  UNL1        0.0000
     63 H           7.9271   15.6658   12.1146 H       1  UNL1        0.0000
     64 H           7.6049   17.0432   13.1805 H       1  UNL1        0.0000
     65 H           6.6710   15.5520   13.3427 H       1  UNL1        0.0000
     66 C           9.9528   11.3437   14.7900 C.3     1  UNL1        0.0000
     67 H           8.9684   10.8758   14.7766 H       1  UNL1        0.0000
     68 H          10.5564   10.8415   15.5440 H       1  UNL1        0.0000
     69 H          10.4199   11.1783   13.8037 H       1  UNL1        0.0000
     70 C           8.1783   15.5417   15.5584 C.3     1  UNL1        0.0000
     71 H           7.3355   14.8757   15.7303 H       1  UNL1        0.0000
     72 H           7.8455   16.5635   15.7384 H       1  UNL1        0.0000
     73 H           8.9571   15.3100   16.2808 H       1  UNL1        0.0000
     74 C           3.7825    9.5776    9.1884 C.3     1  UNL1        0.0000
     75 H           3.8954   10.3275    8.4083 H       1  UNL1        0.0000
     76 H           2.7158    9.4110    9.3357 H       1  UNL1        0.0000
     77 H           4.2268    8.6448    8.8501 H       1  UNL1        0.0000
     78 C           5.8805   13.0040    9.3177 C.3     1  UNL1        0.0000
     79 H           4.8442   12.9437    9.6474 H       1  UNL1        0.0000
     80 H           5.9235   13.6446    8.4383 H       1  UNL1        0.0000
     81 H           6.4669   13.4689   10.1079 H       1  UNL1        0.0000
     82 C          12.1634   16.5103   11.4601 C.ar    1  UNL1        0.0000
     83 H          12.0553   17.5501   11.1857 H       1  UNL1        0.0000
     84 C           4.9650    3.6447    8.0917 C.3     1  UNL1        0.0000
     85 H           5.1579    3.3249    9.1126 H       1  UNL1        0.0000
     86 H           4.7534    2.7634    7.4900 H       1  UNL1        0.0000
     87 H           4.0836    4.2827    8.0929 H       1  UNL1        0.0000
     88 C           8.7166    7.2692   15.3722 C.ar    1  UNL1        0.0000
     89 H           8.6943    6.8037   16.3475 H       1  UNL1        0.0000
     90 C          14.6759   16.7583   11.3137 C.3     1  UNL1        0.0000
     91 H          15.5425   16.1095   11.4847 H       1  UNL1        0.0000
     92 C          14.7716   17.9425   12.2780 C.3     1  UNL1        0.0000
     93 H          13.9482   18.6353   12.1224 H       1  UNL1        0.0000
     94 H          15.7049   18.4804   12.1240 H       1  UNL1        0.0000
     95 H          14.7380   17.5955   13.3087 H       1  UNL1        0.0000
     96 C           7.4098    3.5032    7.5062 C.3     1  UNL1        0.0000
     97 H           8.2635    4.0472    7.1085 H       1  UNL1        0.0000
     98 H           7.2347    2.6282    6.8837 H       1  UNL1        0.0000
     99 H           7.6565    3.1663    8.5098 H       1  UNL1        0.0000
    100 C          14.7209   17.2381    9.8613 C.3     1  UNL1        0.0000
    101 H          14.6545   16.3907    9.1826 H       1  UNL1        0.0000
    102 H          15.6509   17.7683    9.6660 H       1  UNL1        0.0000
    103 H          13.8917   17.9098    9.6519 H       1  UNL1        0.0000
    104 H           4.5069   11.7909   12.8845 H       1  UNL1        0.0000
@<TRIPOS>BOND
     1    35    34    1
     2    18    17    1
     3    98    96    1
     4    97    96    1
     5    86    84    1
     6    96    34    1
     7    96    99    1
     8    34    84    1
     9    34    14    1
    10    17    14   ar
    11    17    19   ar
    12    46    44    1
    13    20    19    1
    14    84    87    1
    15    84    85    1
    16    41    40    1
    17    14    24   ar
    18    47    44    1
    19    19    22   ar
    20    75    74    1
    21    80    78    1
    22    44    40    1
    23    44    45    1
    24    77    74    1
    25    40    78    1
    26    40     2    1
    27   101   100    1
    28    74    76    1
    29    74    50    1
    30    78    79    1
    31    78    81    1
    32   103   100    1
    33    24    25    1
    34    24    28   ar
    35   102   100    1
    36    22    28   ar
    37    22     6    1
    38   100    90    1
    39     4     3    1
    40    28    29    1
    41     2    50    1
    42     2     6    1
    43     2     8    1
    44    50    51    1
    45    50    58    1
    46     6     3    1
    47     3    33    1
    48    83    82    1
    49    90    91    1
    50    90    32    1
    51    90    92    1
    52    59    58    1
    53    82    32   ar
    54    82    38   ar
    55    32    12   ar
    56    39    38    1
    57    58    60    1
    58    58    61    1
    59    38    21   ar
    60    12    13    1
    61    12    15   ar
    62     8     5   ar
    63     8    23   ar
    64    21    15   ar
    65    21     7    1
    66    63    62    1
    67    93    92    1
    68    94    92    1
    69    15    16    1
    70     5     9   ar
    71     7     1    1
    72    92    95    1
    73    43    42    1
    74    23   104    1
    75    23    10   ar
    76    33    42   ar
    77    33    30   ar
    78    62    64    1
    79    62    65    1
    80    62    26    1
    81     9     1    1
    82     9    10   ar
    83    31    30    1
    84    42    48   ar
    85     1    26    1
    86     1    36    1
    87    30    56   ar
    88    10    11    1
    89    69    66    1
    90    27    26    1
    91    26    70    1
    92    53    52    1
    93    48    49    1
    94    48    88   ar
    95    67    66    1
    96    66    36    1
    97    66    68    1
    98    56    88   ar
    99    56    57    1
   100    36    52    1
   101    36    37    1
   102    88    89    1
   103    52    55    1
   104    52    54    1
   105    70    71    1
   106    70    72    1
   107    70    73    1
