@<TRIPOS>MOLECULE
1,6,17
 27 28 0 0 0
SMALL
GASTEIGER

@<TRIPOS>ATOM
      1 SI         10.6426    9.5149    5.4833 Si      1  UNL1        0.0000
      2 C          10.9570    8.6746    7.1607 C.3     1  UNL1        0.0000
      3 H          11.9374    8.9488    7.5368 H       1  UNL1        0.0000
      4 H          10.9184    7.5976    7.0620 H       1  UNL1        0.0000
      5 H          10.2159    8.9759    7.8901 H       1  UNL1        0.0000
      6 N          11.1082    9.4857    2.6629 N.pl3   1  UNL1        0.0000
      7 C          12.2356    9.3752    3.3900 C.3     1  UNL1        0.0000
      8 O          12.1572    9.3028    4.6997 O.3     1  UNL1        0.0000
      9 C          13.4905    9.3345    2.7754 C.2     1  UNL1        0.0000
     10 H          14.3625    9.2478    3.4026 H       1  UNL1        0.0000
     11 C          13.5739    9.4020    1.4013 C.2     1  UNL1        0.0000
     12 H          14.5353    9.3723    0.9118 H       1  UNL1        0.0000
     13 C          12.4006    9.5006    0.6634 C.2     1  UNL1        0.0000
     14 H          12.4133    9.5431   -0.4126 H       1  UNL1        0.0000
     15 C          11.1937    9.5335    1.3307 C.2     1  UNL1        0.0000
     16 H          10.2625    9.5883    0.7832 H       1  UNL1        0.0000
     17 N           9.8426   11.7949    3.9343 N.pl3   1  UNL1        0.0000
     18 C          10.4716   12.1137    5.0682 C.3     1  UNL1        0.0000
     19 O          10.7639   11.1549    5.9302 O.3     1  UNL1        0.0000
     20 C          10.8209   13.4357    5.3597 C.2     1  UNL1        0.0000
     21 H          11.3225   13.6460    6.2898 H       1  UNL1        0.0000
     22 C          10.5145   14.4228    4.4465 C.2     1  UNL1        0.0000
     23 H          10.7743   15.4508    4.6500 H       1  UNL1        0.0000
     24 C           9.8713   14.0753    3.2643 C.2     1  UNL1        0.0000
     25 H           9.6187   14.8155    2.5234 H       1  UNL1        0.0000
     26 C           9.5544   12.7481    3.0579 C.2     1  UNL1        0.0000
     27 H           9.0480   12.4130    2.1644 H       1  UNL1        0.0000
@<TRIPOS>BOND
     1    14    13    1
     2    13    15    2
     3    13    11    1
     4    16    15    1
     5    12    11    1
     6    15     6    1
     7    11     9    2
     8    27    26    1
     9    25    24    1
    10     6     7    1
    11     9     7    1
    12     9    10    1
    13    26    24    2
    14    26    17    1
    15    24    22    1
    16     7     8    1
    17    17    18    1
    18    22    23    1
    19    22    20    2
    20     8     1    1
    21    18    20    1
    22    18    19    1
    23    20    21    1
    24     1    19    1
    25     1     2    1
    26     4     2    1
    27     2     3    1
    28     2     5    1
