@<TRIPOS>MOLECULE
1,2,3,4,7
 105 113 0 0 0
SMALL
GASTEIGER

@<TRIPOS>ATOM
      1 S          13.4886    1.8425   18.2354 S.3     1  UNL1        0.0000
      2 S          13.5756    1.6882   21.5373 S.3     1  UNL1        0.0000
      3 S          10.5397    0.1013   18.3307 S.3     1  UNL1        0.0000
      4 S          10.6991   -0.1839   21.6215 S.3     1  UNL1        0.0000
      5 SI         14.9021    4.0510   16.6319 Si      1  UNL1        0.0000
      6 SI          8.2199   -0.6821   23.3723 Si      1  UNL1        0.0000
      7 N          11.1222    2.4057   20.0723 N.pl3   1  UNL1        0.0000
      8 C          14.3998    2.9578   19.1910 C.ar    1  UNL1        0.0000
      9 C          15.1183    3.9568   18.5090 C.ar    1  UNL1        0.0000
     10 C          15.8996    4.8390   19.2295 C.ar    1  UNL1        0.0000
     11 H          16.4440    5.6054   18.6972 H       1  UNL1        0.0000
     12 C          16.0001    4.7579   20.6129 C.ar    1  UNL1        0.0000
     13 H          16.6252    5.4483   21.1580 H       1  UNL1        0.0000
     14 C          15.2904    3.7844   21.2872 C.ar    1  UNL1        0.0000
     15 H          15.3528    3.6947   22.3619 H       1  UNL1        0.0000
     16 C          14.4795    2.9065   20.5825 C.ar    1  UNL1        0.0000
     17 C          12.2374    2.7658   22.1915 C.3     1  UNL1        0.0000
     18 H          11.7065    2.1292   22.9074 H       1  UNL1        0.0000
     19 H          12.6905    3.6072   22.7156 H       1  UNL1        0.0000
     20 C           9.2233   -0.3847   20.7445 C.ar    1  UNL1        0.0000
     21 C           8.0643   -0.6762   21.4869 C.ar    1  UNL1        0.0000
     22 C           6.8730   -0.8945   20.8228 C.ar    1  UNL1        0.0000
     23 H           5.9877   -1.1134   21.4018 H       1  UNL1        0.0000
     24 C           6.7931   -0.8420   19.4367 C.ar    1  UNL1        0.0000
     25 H           5.8562   -1.0279   18.9346 H       1  UNL1        0.0000
     26 C           7.9256   -0.5469   18.7044 C.ar    1  UNL1        0.0000
     27 H           7.8947   -0.5027   17.6255 H       1  UNL1        0.0000
     28 C           9.1251   -0.2982   19.3559 C.ar    1  UNL1        0.0000
     29 C          10.1279    1.8488   17.9354 C.3     1  UNL1        0.0000
     30 H          10.8731    2.1370   17.1863 H       1  UNL1        0.0000
     31 H           9.1323    1.8818   17.4929 H       1  UNL1        0.0000
     32 C          11.2989    3.2163   21.1219 C.3     1  UNL1        0.0000
     33 C          10.6154    4.4168   21.2413 C.2     1  UNL1        0.0000
     34 H          10.8100    5.0588   22.0846 H       1  UNL1        0.0000
     35 C           9.6720    4.7529   20.2853 C.2     1  UNL1        0.0000
     36 H           9.1068    5.6679   20.3683 H       1  UNL1        0.0000
     37 C           9.4683    3.8914   19.2209 C.2     1  UNL1        0.0000
     38 H           8.7416    4.1102   18.4557 H       1  UNL1        0.0000
     39 C          10.2370    2.7412   19.1269 C.2     1  UNL1        0.0000
     40 C          13.0464    4.2661   16.2909 C.ar    1  UNL1        0.0000
     41 C          12.3083    5.1670   17.0534 C.ar    1  UNL1        0.0000
     42 H          12.7987    5.7106   17.8500 H       1  UNL1        0.0000
     43 C          10.9643    5.3806   16.8073 C.ar    1  UNL1        0.0000
     44 H          10.4153    6.1005   17.3987 H       1  UNL1        0.0000
     45 C          10.3270    4.6818   15.7956 C.ar    1  UNL1        0.0000
     46 H           9.2784    4.8511   15.5941 H       1  UNL1        0.0000
     47 C          11.0417    3.7665   15.0402 C.ar    1  UNL1        0.0000
     48 H          10.5476    3.2130   14.2540 H       1  UNL1        0.0000
     49 C          12.3892    3.5661   15.2855 C.ar    1  UNL1        0.0000
     50 H          12.9409    2.8494   14.6955 H       1  UNL1        0.0000
     51 C          15.6906    2.6023   15.7074 C.ar    1  UNL1        0.0000
     52 C          15.7466    2.6274   14.3162 C.ar    1  UNL1        0.0000
     53 H          15.3289    3.4725   13.7859 H       1  UNL1        0.0000
     54 C          16.3350    1.5966   13.6072 C.ar    1  UNL1        0.0000
     55 H          16.3666    1.6323   12.5273 H       1  UNL1        0.0000
     56 C          16.8861    0.5198   14.2818 C.ar    1  UNL1        0.0000
     57 H          17.3452   -0.2881   13.7302 H       1  UNL1        0.0000
     58 C          16.8506    0.4859   15.6653 C.ar    1  UNL1        0.0000
     59 H          17.2833   -0.3491   16.1973 H       1  UNL1        0.0000
     60 C          16.2601    1.5199   16.3690 C.ar    1  UNL1        0.0000
     61 H          16.2375    1.4846   17.4480 H       1  UNL1        0.0000
     62 C          15.7941    5.6111   16.0212 C.ar    1  UNL1        0.0000
     63 C          17.1843    5.6281   15.9575 C.ar    1  UNL1        0.0000
     64 H          17.7353    4.7503   16.2653 H       1  UNL1        0.0000
     65 C          17.8670    6.7418   15.5044 C.ar    1  UNL1        0.0000
     66 H          18.9471    6.7352   15.4638 H       1  UNL1        0.0000
     67 C          17.1657    7.8654   15.0993 C.ar    1  UNL1        0.0000
     68 H          17.6955    8.7373   14.7432 H       1  UNL1        0.0000
     69 C          15.7823    7.8635   15.1487 C.ar    1  UNL1        0.0000
     70 H          15.2290    8.7353   14.8288 H       1  UNL1        0.0000
     71 C          15.1070    6.7453   15.6052 C.ar    1  UNL1        0.0000
     72 H          14.0267    6.7498   15.6355 H       1  UNL1        0.0000
     73 C           9.2206   -2.1381   24.0458 C.ar    1  UNL1        0.0000
     74 C           9.8830   -3.0341   23.2141 C.ar    1  UNL1        0.0000
     75 H           9.8522   -2.8891   22.1445 H       1  UNL1        0.0000
     76 C          10.5846   -4.1054   23.7370 C.ar    1  UNL1        0.0000
     77 H          11.0968   -4.7883   23.0747 H       1  UNL1        0.0000
     78 C          10.6315   -4.3019   25.1065 C.ar    1  UNL1        0.0000
     79 H          11.1803   -5.1375   25.5170 H       1  UNL1        0.0000
     80 C           9.9675   -3.4256   25.9489 C.ar    1  UNL1        0.0000
     81 H           9.9945   -3.5782   27.0188 H       1  UNL1        0.0000
     82 C           9.2674   -2.3571   25.4203 C.ar    1  UNL1        0.0000
     83 H           8.7397   -1.6827   26.0809 H       1  UNL1        0.0000
     84 C           8.8903    1.0181   23.8877 C.ar    1  UNL1        0.0000
     85 C           8.3634    2.1688   23.3078 C.ar    1  UNL1        0.0000
     86 H           7.5979    2.0749   22.5490 H       1  UNL1        0.0000
     87 C           8.7980    3.4255   23.6878 C.ar    1  UNL1        0.0000
     88 H           8.3600    4.3064   23.2389 H       1  UNL1        0.0000
     89 C           9.7843    3.5539   24.6516 C.ar    1  UNL1        0.0000
     90 H          10.1217    4.5343   24.9579 H       1  UNL1        0.0000
     91 C          10.3339    2.4186   25.2245 C.ar    1  UNL1        0.0000
     92 H          11.1088    2.5128   25.9723 H       1  UNL1        0.0000
     93 C           9.8859    1.1645   24.8469 C.ar    1  UNL1        0.0000
     94 H          10.3194    0.2827   25.2949 H       1  UNL1        0.0000
     95 C           6.4746   -0.8684   24.0948 C.ar    1  UNL1        0.0000
     96 C           5.8075    0.1848   24.7086 C.ar    1  UNL1        0.0000
     97 H           6.2902    1.1495   24.7749 H       1  UNL1        0.0000
     98 C           4.5407    0.0167   25.2395 C.ar    1  UNL1        0.0000
     99 H           4.0390    0.8486   25.7138 H       1  UNL1        0.0000
    100 C           3.9163   -1.2166   25.1655 C.ar    1  UNL1        0.0000
    101 H           2.9270   -1.3505   25.5788 H       1  UNL1        0.0000
    102 C           4.5686   -2.2794   24.5627 C.ar    1  UNL1        0.0000
    103 H           4.0886   -3.2461   24.5058 H       1  UNL1        0.0000
    104 C           5.8351   -2.1032   24.0366 C.ar    1  UNL1        0.0000
    105 H           6.3441   -2.9374   23.5740 H       1  UNL1        0.0000
@<TRIPOS>BOND
     1    55    54    1
     2    54    56   ar
     3    54    52   ar
     4    57    56    1
     5    53    52    1
     6    48    47    1
     7    56    58   ar
     8    52    51   ar
     9    50    49    1
    10    68    67    1
    11    70    69    1
    12    47    49   ar
    13    47    45   ar
    14    67    69   ar
    15    67    65   ar
    16    69    71   ar
    17    49    40   ar
    18    66    65    1
    19    65    63   ar
    20    46    45    1
    21    71    72    1
    22    71    62   ar
    23    58    59    1
    24    58    60   ar
    25    51    60   ar
    26    51     5    1
    27    45    43   ar
    28    63    62   ar
    29    63    64    1
    30    62     5    1
    31    40     5    1
    32    40    41   ar
    33    60    61    1
    34     5     9    1
    35    43    41   ar
    36    43    44    1
    37    41    42    1
    38    30    29    1
    39    31    29    1
    40    27    26    1
    41    29     3    1
    42    29    39    1
    43     1     8    1
    44     3    28    1
    45    38    37    1
    46     9     8   ar
    47     9    10   ar
    48    11    10    1
    49    26    28   ar
    50    26    24   ar
    51    25    24    1
    52    39    37    2
    53    39     7    1
    54     8    16   ar
    55    37    35    1
    56    10    12   ar
    57    28    20   ar
    58    24    22   ar
    59     7    32    1
    60    35    36    1
    61    35    33    2
    62    16    14   ar
    63    16     2    1
    64    12    13    1
    65    12    14   ar
    66    20    21   ar
    67    20     4    1
    68    22    23    1
    69    22    21   ar
    70    32    33    1
    71    32    17    1
    72    33    34    1
    73    14    15    1
    74    21     6    1
    75     2    17    1
    76    75    74    1
    77    17    19    1
    78    17    18    1
    79    86    85    1
    80    77    76    1
    81    74    76   ar
    82    74    73   ar
    83    88    87    1
    84    85    87   ar
    85    85    84   ar
    86     6    84    1
    87     6    73    1
    88     6    95    1
    89   105   104    1
    90    87    89   ar
    91    76    78   ar
    92    84    93   ar
    93   104    95   ar
    94   104   102   ar
    95    73    82   ar
    96    95    96   ar
    97   103   102    1
    98   102   100   ar
    99    89    90    1
   100    89    91   ar
   101    96    97    1
   102    96    98   ar
   103    93    91   ar
   104    93    94    1
   105    78    79    1
   106    78    80   ar
   107   100    98   ar
   108   100   101    1
   109    91    92    1
   110    98    99    1
   111    82    80   ar
   112    82    83    1
   113    80    81    1
