@<TRIPOS>MOLECULE
1,8,21
 21 21 0 0 0
SMALL
GASTEIGER

@<TRIPOS>ATOM
      1 C          -0.0657    2.1294    3.0367 C.2     1  UNL1        0.0015
      2 C          -2.7630    2.7994    0.7157 C.3     1  UNL1       -0.0527
      3 H          -3.1031    3.6347    0.0968 H       1  UNL1        0.0265
      4 H          -3.4288    1.9562    0.5150 H       1  UNL1        0.0265
      5 C          -0.6782    0.9716    2.2888 C.3     1  UNL1       -0.0240
      6 H          -0.0943    0.0633    2.4764 H       1  UNL1        0.0314
      7 H          -1.6834    0.7709    2.6709 H       1  UNL1        0.0314
      8 C          -0.5400    3.3749    3.1715 C.2     1  UNL1        0.1596
      9 C          -1.7813    4.1115    2.6938 C.3     1  UNL1        0.0102
     10 H          -2.1389    4.6902    3.5518 H       1  UNL1        0.0345
     11 H          -1.5095    4.8406    1.9225 H       1  UNL1        0.0345
     12 C          -2.9083    3.2134    2.1849 C.3     1  UNL1       -0.0460
     13 H          -2.9809    2.3369    2.8276 H       1  UNL1        0.0269
     14 H          -3.8543    3.7542    2.2830 H       1  UNL1        0.0269
     15 C          -1.3460    2.4521    0.2620 C.3     1  UNL1       -0.0527
     16 H          -1.3455    2.4170   -0.8318 H       1  UNL1        0.0265
     17 H          -0.6703    3.2490    0.5623 H       1  UNL1        0.0265
     18 C          -0.7903    1.1221    0.7609 C.3     1  UNL1       -0.0489
     19 H          -1.4207    0.3074    0.3912 H       1  UNL1        0.0268
     20 H           0.1981    0.9907    0.3116 H       1  UNL1        0.0268
     21 O           0.2639    4.1272    3.9882 O.2     1  UNL1       -0.2924
@<TRIPOS>BOND
     1    16    15    1
     2     3     2    1
     3    15    17    1
     4    15     2    1
     5    15    18    1
     6    20    18    1
     7    19    18    1
     8     4     2    1
     9     2    12    1
    10    18     5    1
    11    11     9    1
    12    12    14    1
    13    12     9    1
    14    12    13    1
    15     5     6    1
    16     5     7    1
    17     5     1    1
    18     9     8    1
    19     9    10    1
    20     1     8    2
    21     8    21    1
