@<TRIPOS>MOLECULE
2,4,5
 61 63 0 0 0
SMALL
GASTEIGER

@<TRIPOS>ATOM
      1 SI         11.9127    0.4444   15.2334 Si      1  UNL1        0.0000
      2 O          10.2483   -1.5706   14.6165 O.3     1  UNL1        0.0000
      3 O          10.5029    0.6122   14.3448 O.3     1  UNL1        0.0000
      4 C           9.7562   -0.4809   14.2124 C.3     1  UNL1        0.0000
      5 C           8.4689   -0.4936   13.6129 C.3     1  UNL1        0.0000
      6 H           7.7871   -1.1670   14.1385 H       1  UNL1        0.0000
      7 C           7.7470    0.7827   13.2110 C.3     1  UNL1        0.0000
      8 C           8.6422    1.7872   12.4818 C.3     1  UNL1        0.0000
      9 H           9.1380    1.3237   11.6322 H       1  UNL1        0.0000
     10 H           9.4018    2.1818   13.1502 H       1  UNL1        0.0000
     11 H           8.0381    2.6162   12.1178 H       1  UNL1        0.0000
     12 C           7.2021    1.4490   14.4857 C.3     1  UNL1        0.0000
     13 H           6.6492    2.3514   14.2337 H       1  UNL1        0.0000
     14 H           8.0243    1.7224   15.1439 H       1  UNL1        0.0000
     15 H           6.5342    0.7763   15.0216 H       1  UNL1        0.0000
     16 C           6.5741    0.4027   12.2997 C.3     1  UNL1        0.0000
     17 H           6.0012    1.2867   12.0294 H       1  UNL1        0.0000
     18 H           5.9061   -0.2954   12.8005 H       1  UNL1        0.0000
     19 H           6.9444   -0.0624   11.3890 H       1  UNL1        0.0000
     20 C          13.2037   -0.7871   14.5828 C.ar    1  UNL1        0.0000
     21 C          13.2168   -2.1153   14.9994 C.ar    1  UNL1        0.0000
     22 H          12.4785   -2.4495   15.7127 H       1  UNL1        0.0000
     23 C          14.1579   -3.0077   14.5187 C.ar    1  UNL1        0.0000
     24 H          14.1535   -4.0333   14.8666 H       1  UNL1        0.0000
     25 C          15.1189   -2.6032   13.6021 C.ar    1  UNL1        0.0000
     26 C          15.1249   -1.2729   13.1991 C.ar    1  UNL1        0.0000
     27 H          15.8715   -0.9368   12.4935 H       1  UNL1        0.0000
     28 C          14.1907   -0.3805   13.6866 C.ar    1  UNL1        0.0000
     29 H          14.2198    0.6497   13.3635 H       1  UNL1        0.0000
     30 C          16.1373   -3.5630   13.0648 C.3     1  UNL1        0.0000
     31 H          17.1335   -3.2880   13.4110 H       1  UNL1        0.0000
     32 H          16.1460   -3.5379   11.9762 H       1  UNL1        0.0000
     33 H          15.9285   -4.5796   13.3901 H       1  UNL1        0.0000
     34 C          11.4498   -0.0232   17.0077 C.ar    1  UNL1        0.0000
     35 C          12.4362   -0.3639   17.9309 C.ar    1  UNL1        0.0000
     36 H          13.4707   -0.3619   17.6180 H       1  UNL1        0.0000
     37 C          12.1146   -0.7112   19.2281 C.ar    1  UNL1        0.0000
     38 H          12.8983   -0.9723   19.9261 H       1  UNL1        0.0000
     39 C          10.7900   -0.7346   19.6512 C.ar    1  UNL1        0.0000
     40 C           9.8011   -0.3986   18.7368 C.ar    1  UNL1        0.0000
     41 H           8.7640   -0.4122   19.0442 H       1  UNL1        0.0000
     42 C          10.1278   -0.0469   17.4399 C.ar    1  UNL1        0.0000
     43 H           9.3396    0.2075   16.7445 H       1  UNL1        0.0000
     44 C          10.4504   -1.0992   21.0646 C.3     1  UNL1        0.0000
     45 H          11.0266   -1.9640   21.3887 H       1  UNL1        0.0000
     46 H           9.3912   -1.3225   21.1670 H       1  UNL1        0.0000
     47 H          10.6907   -0.2705   21.7313 H       1  UNL1        0.0000
     48 C          12.5913    2.1957   15.0741 C.ar    1  UNL1        0.0000
     49 C          13.2922    2.7825   16.1212 C.ar    1  UNL1        0.0000
     50 H          13.3990    2.2412   17.0498 H       1  UNL1        0.0000
     51 C          13.8455    4.0419   15.9950 C.ar    1  UNL1        0.0000
     52 H          14.3842    4.4795   16.8244 H       1  UNL1        0.0000
     53 C          13.7211    4.7571   14.8094 C.ar    1  UNL1        0.0000
     54 C          13.0270    4.1740   13.7574 C.ar    1  UNL1        0.0000
     55 H          12.9223    4.7116   12.8250 H       1  UNL1        0.0000
     56 C          12.4739    2.9138   13.8876 C.ar    1  UNL1        0.0000
     57 H          11.9424    2.4729   13.0568 H       1  UNL1        0.0000
     58 C          14.3076    6.1307   14.6832 C.3     1  UNL1        0.0000
     59 H          13.6594    6.8592   15.1716 H       1  UNL1        0.0000
     60 H          14.4118    6.4152   13.6390 H       1  UNL1        0.0000
     61 H          15.2835    6.1792   15.1623 H       1  UNL1        0.0000
@<TRIPOS>BOND
     1    19    16    1
     2     9     8    1
     3    32    30    1
     4    17    16    1
     5    11     8    1
     6    16    18    1
     7    16     7    1
     8     8    10    1
     9     8     7    1
    10    27    26    1
    11    55    54    1
    12    57    56    1
    13    30    33    1
    14    30    31    1
    15    30    25    1
    16    26    25   ar
    17    26    28   ar
    18     7     5    1
    19     7    12    1
    20    29    28    1
    21    25    23   ar
    22     5     6    1
    23     5     4    1
    24    60    58    1
    25    28    20   ar
    26    54    56   ar
    27    54    53   ar
    28    56    48   ar
    29     4     3    1
    30     4     2    1
    31    13    12    1
    32     3     1    1
    33    12    15    1
    34    12    14    1
    35    23    24    1
    36    23    21   ar
    37    20    21   ar
    38    20     1    1
    39    58    53    1
    40    58    61    1
    41    58    59    1
    42    53    51   ar
    43    21    22    1
    44    48     1    1
    45    48    49   ar
    46     1    34    1
    47    51    49   ar
    48    51    52    1
    49    49    50    1
    50    43    42    1
    51    34    42   ar
    52    34    35   ar
    53    42    40   ar
    54    36    35    1
    55    35    37   ar
    56    40    41    1
    57    40    39   ar
    58    37    39   ar
    59    37    38    1
    60    39    44    1
    61    44    46    1
    62    44    45    1
    63    44    47    1
