@<TRIPOS>MOLECULE
1,2,3
 15 15 0 0 0
SMALL
GASTEIGER

@<TRIPOS>ATOM
      1 O           4.8792    3.8781    5.9038 O.3     1  UNL1       -0.4945
      2 C           6.2628    3.7684    7.7817 C.ar    1  UNL1        0.0273
      3 C           6.0331    4.3897    6.5344 C.ar    1  UNL1        0.1279
      4 C           6.8306    5.3820    5.9956 C.ar    1  UNL1       -0.0193
      5 H           6.6185    5.8380    5.0397 H       1  UNL1        0.0654
      6 C           7.9412    5.8023    6.7169 C.ar    1  UNL1       -0.0583
      7 H           8.5778    6.5746    6.3101 H       1  UNL1        0.0619
      8 C           8.2204    5.2330    7.9416 C.ar    1  UNL1       -0.0610
      9 H           9.0851    5.5597    8.5022 H       1  UNL1        0.0618
     10 C           7.3928    4.2401    8.4578 C.ar    1  UNL1       -0.0504
     11 H           7.6494    3.8220    9.4263 H       1  UNL1        0.0625
     12 C           4.6095    4.3232    4.5889 C.3     1  UNL1        0.0788
     13 H           4.3262    5.3826    4.5770 H       1  UNL1        0.0660
     14 H           3.7823    3.7194    4.2209 H       1  UNL1        0.0660
     15 H           5.4742    4.1749    3.9360 H       1  UNL1        0.0660
@<TRIPOS>BOND
     1    15    12    1
     2    14    12    1
     3    13    12    1
     4    12     1    1
     5     5     4    1
     6     1     3    1
     7     4     3   ar
     8     4     6   ar
     9     7     6    1
    10     3     2   ar
    11     6     8   ar
    12     2    10   ar
    13     8    10   ar
    14     8     9    1
    15    10    11    1
