@<TRIPOS>MOLECULE
2,3,7
 62 63 0 0 0
SMALL
GASTEIGER

@<TRIPOS>ATOM
      1 SI          8.5726    0.5871    4.2580 Si      1  UNL1        0.0000
      2 O           6.7295    2.0917    5.9427 O.3     1  UNL1        0.0000
      3 C           6.7603   -0.0249    4.1335 C.3     1  UNL1        0.0000
      4 C           6.3525   -0.5541    2.8167 C.2     1  UNL1        0.0000
      5 C           5.8128   -1.7915    2.9720 C.2     1  UNL1        0.0000
      6 C           5.8287   -2.1359    4.3758 C.2     1  UNL1        0.0000
      7 C           6.3899   -1.1131    5.0768 C.2     1  UNL1        0.0000
      8 C           6.4497    0.2069    1.5329 C.3     1  UNL1        0.0000
      9 H           5.4957    0.1753    1.0080 H       1  UNL1        0.0000
     10 H           7.2019   -0.2310    0.8752 H       1  UNL1        0.0000
     11 H           6.6973    1.2498    1.7154 H       1  UNL1        0.0000
     12 C           5.2454   -2.6726    1.9109 C.3     1  UNL1        0.0000
     13 H           5.5537   -2.3372    0.9249 H       1  UNL1        0.0000
     14 H           4.1560   -2.6586    1.9540 H       1  UNL1        0.0000
     15 H           5.5727   -3.7014    2.0504 H       1  UNL1        0.0000
     16 C           5.2862   -3.4192    4.9081 C.3     1  UNL1        0.0000
     17 H           4.2640   -3.5657    4.5619 H       1  UNL1        0.0000
     18 H           5.2891   -3.4239    5.9942 H       1  UNL1        0.0000
     19 H           5.8811   -4.2617    4.5531 H       1  UNL1        0.0000
     20 C           6.6202   -1.0833    6.5599 C.3     1  UNL1        0.0000
     21 H           7.3210   -0.3004    6.8383 H       1  UNL1        0.0000
     22 H           7.0266   -2.0361    6.8974 H       1  UNL1        0.0000
     23 H           5.6837   -0.9107    7.0951 H       1  UNL1        0.0000
     24 C           8.9408    1.4191    5.9346 C.ar    1  UNL1        0.0000
     25 C           7.9151    2.1559    6.5473 C.ar    1  UNL1        0.0000
     26 C           8.1531    2.8892    7.7281 C.ar    1  UNL1        0.0000
     27 C           9.4381    2.8527    8.2484 C.ar    1  UNL1        0.0000
     28 H           9.6658    3.4036    9.1457 H       1  UNL1        0.0000
     29 C          10.4687    2.1257    7.6642 C.ar    1  UNL1        0.0000
     30 C          10.2021    1.4139    6.5074 C.ar    1  UNL1        0.0000
     31 H          10.9858    0.8440    6.0332 H       1  UNL1        0.0000
     32 C          11.8298    2.1190    8.2911 C.3     1  UNL1        0.0000
     33 H          11.8017    1.5952    9.2460 H       1  UNL1        0.0000
     34 H          12.1693    3.1357    8.4800 H       1  UNL1        0.0000
     35 H          12.5500    1.6223    7.6470 H       1  UNL1        0.0000
     36 C           7.0309    3.6530    8.4153 C.3     1  UNL1        0.0000
     37 C           7.5188    4.4629    9.6215 C.3     1  UNL1        0.0000
     38 H           7.9282    3.8172   10.3945 H       1  UNL1        0.0000
     39 H           6.6763    5.0002   10.0512 H       1  UNL1        0.0000
     40 H           8.2687    5.1935    9.3275 H       1  UNL1        0.0000
     41 C           6.0008    2.6300    8.9119 C.3     1  UNL1        0.0000
     42 H           5.6142    2.0349    8.0887 H       1  UNL1        0.0000
     43 H           5.1661    3.1386    9.3882 H       1  UNL1        0.0000
     44 H           6.4587    1.9602    9.6377 H       1  UNL1        0.0000
     45 C           6.3807    4.6349    7.4310 C.3     1  UNL1        0.0000
     46 H           5.9151    4.1167    6.5960 H       1  UNL1        0.0000
     47 H           7.1276    5.3222    7.0382 H       1  UNL1        0.0000
     48 H           5.6130    5.2131    7.9404 H       1  UNL1        0.0000
     49 C           9.7438   -0.9290    4.1496 C.3     1  UNL1        0.0000
     50 H          10.7699   -0.5716    4.0669 H       1  UNL1        0.0000
     51 H           9.6877   -1.4963    5.0795 H       1  UNL1        0.0000
     52 C           9.4609   -1.8731    2.9875 C.3     1  UNL1        0.0000
     53 H           9.5567   -1.3551    2.0383 H       1  UNL1        0.0000
     54 H           8.4547   -2.2731    3.0577 H       1  UNL1        0.0000
     55 H          10.1634   -2.7047    2.9922 H       1  UNL1        0.0000
     56 C           9.0650    2.0030    3.0398 C.3     1  UNL1        0.0000
     57 H           8.1883    2.5974    2.7736 H       1  UNL1        0.0000
     58 H           9.7250    2.6785    3.5884 H       1  UNL1        0.0000
     59 C           9.7909    1.5702    1.7691 C.3     1  UNL1        0.0000
     60 H          10.6959    1.0227    2.0168 H       1  UNL1        0.0000
     61 H          10.0712    2.4402    1.1780 H       1  UNL1        0.0000
     62 H           9.1639    0.9332    1.1543 H       1  UNL1        0.0000
@<TRIPOS>BOND
     1    10     8    1
     2    13    12    1
     3     9     8    1
     4    62    59    1
     5    61    59    1
     6     8    11    1
     7     8     4    1
     8    59    60    1
     9    59    56    1
    10    12    14    1
    11    12    15    1
    12    12     5    1
    13    53    52    1
    14    57    56    1
    15     4     5    2
    16     4     3    1
    17     5     6    1
    18    52    55    1
    19    52    54    1
    20    52    49    1
    21    56    58    1
    22    56     1    1
    23    50    49    1
    24     3     1    1
    25     3     7    1
    26    49     1    1
    27    49    51    1
    28     1    24    1
    29     6    16    1
    30     6     7    2
    31    19    16    1
    32    17    16    1
    33    16    18    1
    34     7    20    1
    35    24    30   ar
    36    24    25   ar
    37     2    25    1
    38    31    30    1
    39    30    29   ar
    40    25    26   ar
    41    20    21    1
    42    20    22    1
    43    20    23    1
    44    46    45    1
    45    47    45    1
    46    45    48    1
    47    45    36    1
    48    35    32    1
    49    29    27   ar
    50    29    32    1
    51    26    27   ar
    52    26    36    1
    53    42    41    1
    54    27    28    1
    55    32    34    1
    56    32    33    1
    57    36    41    1
    58    36    37    1
    59    41    43    1
    60    41    44    1
    61    40    37    1
    62    37    39    1
    63    37    38    1
