@<TRIPOS>MOLECULE
3,4,5,6,10
 61 62 0 0 0
SMALL
GASTEIGER

@<TRIPOS>ATOM
      1 SI         -0.1475    3.2604    8.5877 Si      1  UNL1        0.0000
      2 SI          3.6475    6.5843   14.0032 Si      1  UNL1        0.0000
      3 N           0.3073    4.8361    9.0612 N.3     1  UNL1        0.0000
      4 N           0.2166    7.0713    9.0997 N.3     1  UNL1        0.0000
      5 N           0.8768    7.9819   11.6598 N.3     1  UNL1        0.0000
      6 N           2.4080    6.8428   12.8368 N.3     1  UNL1        0.0000
      7 C          -0.5876    2.0678    9.8179 C.2     1  UNL1        0.0000
      8 C          -0.2912    2.9336    6.7200 C.3     1  UNL1        0.0000
      9 C          -0.8379    0.6090    9.5504 C.3     1  UNL1        0.0000
     10 C          -0.3040    5.9534    8.6665 C.3     1  UNL1        0.0000
     11 C          -1.4762    5.8794    7.7575 C.ar    1  UNL1        0.0000
     12 C          -1.3775    6.3874    6.4656 C.ar    1  UNL1        0.0000
     13 C          -2.4404    6.2701    5.5882 C.ar    1  UNL1        0.0000
     14 C          -3.6123    5.6532    5.9943 C.ar    1  UNL1        0.0000
     15 C          -3.7168    5.1490    7.2799 C.ar    1  UNL1        0.0000
     16 C          -2.6534    5.2579    8.1583 C.ar    1  UNL1        0.0000
     17 C          -0.4647    8.3405    8.9963 C.3     1  UNL1        0.0000
     18 C          -1.0716    8.7413   10.3538 C.3     1  UNL1        0.0000
     19 C          -0.0336    9.0818   11.4320 C.3     1  UNL1        0.0000
     20 C           1.5570    7.8616   12.7714 C.3     1  UNL1        0.0000
     21 C           1.3538    8.7625   13.9336 C.ar    1  UNL1        0.0000
     22 C           0.4803    8.3753   14.9432 C.ar    1  UNL1        0.0000
     23 C           0.2752    9.1955   16.0373 C.ar    1  UNL1        0.0000
     24 C           0.9450   10.4047   16.1320 C.ar    1  UNL1        0.0000
     25 C           1.8170   10.7931   15.1285 C.ar    1  UNL1        0.0000
     26 C           2.0179    9.9786   14.0281 C.ar    1  UNL1        0.0000
     27 C           3.2175    6.8683   15.8481 C.3     1  UNL1        0.0000
     28 C           4.0735    4.7292   13.7890 C.3     1  UNL1        0.0000
     29 C           5.1857    7.6548   13.6118 C.3     1  UNL1        0.0000
     30 H          -0.5053    2.3198   10.8675 H       1  UNL1        0.0000
     31 H          -1.3003    3.1345    6.3677 H       1  UNL1        0.0000
     32 H          -0.0685    1.8935    6.5052 H       1  UNL1        0.0000
     33 H           0.3918    3.5508    6.1408 H       1  UNL1        0.0000
     34 H          -1.7701    0.2829   10.0163 H       1  UNL1        0.0000
     35 H          -0.0391   -0.0143    9.9600 H       1  UNL1        0.0000
     36 H          -0.9073    0.4098    8.4849 H       1  UNL1        0.0000
     37 H          -0.4582    6.8613    6.1513 H       1  UNL1        0.0000
     38 H          -2.3536    6.6599    4.5846 H       1  UNL1        0.0000
     39 H          -4.4417    5.5630    5.3086 H       1  UNL1        0.0000
     40 H          -4.6280    4.6651    7.5994 H       1  UNL1        0.0000
     41 H          -2.7298    4.8532    9.1571 H       1  UNL1        0.0000
     42 H          -1.2730    8.3148    8.2496 H       1  UNL1        0.0000
     43 H           0.2674    9.0984    8.6934 H       1  UNL1        0.0000
     44 H          -1.7051    7.9203   10.7009 H       1  UNL1        0.0000
     45 H          -1.7078    9.6176   10.2056 H       1  UNL1        0.0000
     46 H           0.5379    9.9618   11.0978 H       1  UNL1        0.0000
     47 H          -0.5618    9.3696   12.3567 H       1  UNL1        0.0000
     48 H          -0.0346    7.4137   14.8732 H       1  UNL1        0.0000
     49 H          -0.4038    8.8877   16.8183 H       1  UNL1        0.0000
     50 H           0.7887   11.0435   16.9890 H       1  UNL1        0.0000
     51 H           2.3412   11.7349   15.2032 H       1  UNL1        0.0000
     52 H           2.6951   10.2762   13.2405 H       1  UNL1        0.0000
     53 H           3.1513    7.9254   16.0846 H       1  UNL1        0.0000
     54 H           3.9829    6.4377   16.4865 H       1  UNL1        0.0000
     55 H           2.2687    6.4149   16.1201 H       1  UNL1        0.0000
     56 H           3.7374    4.1391   14.6361 H       1  UNL1        0.0000
     57 H           5.1450    4.5844   13.7046 H       1  UNL1        0.0000
     58 H           3.6119    4.3229   12.8904 H       1  UNL1        0.0000
     59 H           5.5294    7.4924   12.5943 H       1  UNL1        0.0000
     60 H           6.0074    7.4182   14.2803 H       1  UNL1        0.0000
     61 H           4.9672    8.7127   13.7228 H       1  UNL1        0.0000
@<TRIPOS>BOND
     1    38    13    1
     2    39    14    1
     3    13    14   ar
     4    13    12   ar
     5    14    15   ar
     6    33     8    1
     7    37    12    1
     8    31     8    1
     9    12    11   ar
    10    32     8    1
    11     8     1    1
    12    15    40    1
    13    15    16   ar
    14    11    16   ar
    15    11    10    1
    16    16    41    1
    17    42    17    1
    18    36     9    1
    19     1     3    1
    20     1     7    2
    21    10     3    1
    22    10     4    1
    23    43    17    1
    24    17     4    1
    25    17    18    1
    26     9     7    1
    27     9    35    1
    28     9    34    1
    29     7    30    1
    30    45    18    1
    31    18    44    1
    32    18    19    1
    33    46    19    1
    34    19     5    1
    35    19    47    1
    36     5    20    1
    37    59    29    1
    38    20     6    1
    39    20    21    1
    40     6     2    1
    41    58    28    1
    42    52    26    1
    43    29    61    1
    44    29     2    1
    45    29    60    1
    46    57    28    1
    47    28     2    1
    48    28    56    1
    49    21    26   ar
    50    21    22   ar
    51     2    27    1
    52    26    25   ar
    53    48    22    1
    54    22    23   ar
    55    25    51    1
    56    25    24   ar
    57    27    53    1
    58    27    55    1
    59    27    54    1
    60    23    24   ar
    61    23    49    1
    62    24    50    1
