@<TRIPOS>MOLECULE
4,5,6,7,26
 60 59 0 0 0
SMALL
GASTEIGER

@<TRIPOS>ATOM
      1 SI          2.1632   10.9459    6.0382 Si      1  UNL1        0.0000
      2 SI         -0.4082    7.1688    5.0274 Si      1  UNL1        0.0000
      3 SI          2.0162    9.7626    1.1334 Si      1  UNL1        0.0000
      4 N           1.1923   11.6209    4.7609 N.3     1  UNL1        0.0000
      5 N          -0.6025    8.8526    4.6738 N.3     1  UNL1        0.0000
      6 N           0.4430    9.7361    1.8736 N.3     1  UNL1        0.0000
      7 N          -1.0274   11.2904    3.5524 N.3     1  UNL1        0.0000
      8 C           0.4587   12.8406    4.6864 C.3     1  UNL1        0.0000
      9 H           1.1102   13.6950    4.4436 H       1  UNL1        0.0000
     10 H          -0.0283   13.0808    5.6471 H       1  UNL1        0.0000
     11 C          -0.5995   12.6779    3.5756 C.3     1  UNL1        0.0000
     12 H          -1.4440   13.3670    3.7292 H       1  UNL1        0.0000
     13 H          -0.1326   12.8985    2.6132 H       1  UNL1        0.0000
     14 C          -0.5553   10.5881    1.2662 C.3     1  UNL1        0.0000
     15 H          -1.0105   10.0960    0.3939 H       1  UNL1        0.0000
     16 H          -0.1129   11.5289    0.9057 H       1  UNL1        0.0000
     17 C          -1.8966    9.4462    4.9258 C.3     1  UNL1        0.0000
     18 H          -2.2178    9.2645    5.9616 H       1  UNL1        0.0000
     19 H          -2.6598    8.9830    4.2808 H       1  UNL1        0.0000
     20 C          -1.8609   10.9605    4.7015 C.3     1  UNL1        0.0000
     21 H          -2.8812   11.3597    4.5822 H       1  UNL1        0.0000
     22 H          -1.4041   11.4203    5.5804 H       1  UNL1        0.0000
     23 C          -1.6429   10.8924    2.2927 C.3     1  UNL1        0.0000
     24 H          -2.3373   11.6646    1.9236 H       1  UNL1        0.0000
     25 H          -2.2031    9.9701    2.4655 H       1  UNL1        0.0000
     26 C           2.5662    9.4499    4.9462 C.3     1  UNL1        0.0000
     27 H           2.5568    8.5121    5.5026 H       1  UNL1        0.0000
     28 H           3.5686    9.5615    4.5243 H       1  UNL1        0.0000
     29 C           3.5647   12.1604    6.5401 C.3     1  UNL1        0.0000
     30 H           3.1689   13.0732    6.9751 H       1  UNL1        0.0000
     31 H           4.1631   12.4361    5.6777 H       1  UNL1        0.0000
     32 H           4.2263   11.7065    7.2697 H       1  UNL1        0.0000
     33 C           1.1120   10.5969    7.6091 C.3     1  UNL1        0.0000
     34 H           0.7224   11.5140    8.0436 H       1  UNL1        0.0000
     35 H           1.6919   10.0957    8.3764 H       1  UNL1        0.0000
     36 H           0.2709    9.9577    7.3545 H       1  UNL1        0.0000
     37 C           0.1784    6.8327    6.8191 C.3     1  UNL1        0.0000
     38 H          -0.5851    7.0944    7.5460 H       1  UNL1        0.0000
     39 H           1.0676    7.4076    7.0543 H       1  UNL1        0.0000
     40 H           0.4144    5.7825    6.9578 H       1  UNL1        0.0000
     41 C          -2.0654    6.2286    4.8047 C.3     1  UNL1        0.0000
     42 H          -2.8134    6.5668    5.5149 H       1  UNL1        0.0000
     43 H          -1.9298    5.1632    4.9587 H       1  UNL1        0.0000
     44 H          -2.4701    6.3655    3.8064 H       1  UNL1        0.0000
     45 C           0.8319    6.5596    3.7156 C.3     1  UNL1        0.0000
     46 H           0.9175    7.3199    2.9351 H       1  UNL1        0.0000
     47 H           0.5187    5.6278    3.2562 H       1  UNL1        0.0000
     48 H           1.8155    6.3993    4.1408 H       1  UNL1        0.0000
     49 C           2.9516   11.3751    1.6320 C.3     1  UNL1        0.0000
     50 H           2.6599   12.2181    1.0106 H       1  UNL1        0.0000
     51 H           4.0265   11.2636    1.5333 H       1  UNL1        0.0000
     52 H           2.7341   11.6280    2.6732 H       1  UNL1        0.0000
     53 C           3.0755    8.2171    1.4946 C.3     1  UNL1        0.0000
     54 H           2.6130    7.3131    1.1151 H       1  UNL1        0.0000
     55 H           3.2666    8.0859    2.5532 H       1  UNL1        0.0000
     56 H           4.0310    8.3282    0.9943 H       1  UNL1        0.0000
     57 C           1.8175    9.8168   -0.7806 C.3     1  UNL1        0.0000
     58 H           1.3164   10.7211   -1.1128 H       1  UNL1        0.0000
     59 H           1.2402    8.9714   -1.1431 H       1  UNL1        0.0000
     60 H           2.7855    9.7835   -1.2697 H       1  UNL1        0.0000
@<TRIPOS>BOND
     1    60    57    1
     2    59    57    1
     3    58    57    1
     4    57     3    1
     5    15    14    1
     6    16    14    1
     7    56    53    1
     8    50    49    1
     9    54    53    1
    10     3    53    1
    11     3    49    1
    12     3     6    1
    13    14     6    1
    14    14    23    1
    15    53    55    1
    16    51    49    1
    17    49    52    1
    18    24    23    1
    19    23    25    1
    20    23     7    1
    21    13    11    1
    22    46    45    1
    23    47    45    1
    24     7    11    1
    25     7    20    1
    26    11    12    1
    27    11     8    1
    28    45    48    1
    29    45     2    1
    30    44    41    1
    31    19    17    1
    32     9     8    1
    33    28    26    1
    34    21    20    1
    35     5    17    1
    36     5     2    1
    37     8     4    1
    38     8    10    1
    39    20    17    1
    40    20    22    1
    41     4     1    1
    42    41    43    1
    43    41     2    1
    44    41    42    1
    45    17    18    1
    46    26    27    1
    47    26     1    1
    48     2    37    1
    49    31    29    1
    50     1    29    1
    51     1    33    1
    52    29    30    1
    53    29    32    1
    54    37    40    1
    55    37    39    1
    56    37    38    1
    57    36    33    1
    58    33    34    1
    59    33    35    1
