@<TRIPOS>MOLECULE
1,2,3,4,51
 87 86 0 0 0
SMALL
GASTEIGER

@<TRIPOS>ATOM
      1 N          14.0327   12.2606    5.8477 N.3     1  UNL1        0.0000
      2 N          14.0301   15.3270    4.1330 N.3     1  UNL1        0.0000
      3 N          12.8425   12.1949    2.6881 N.3     1  UNL1        0.0000
      4 N          15.2948   13.1083    3.4268 N.3     1  UNL1        0.0000
      5 SI         13.5404   12.3577    7.4783 Si      1  UNL1        0.0000
      6 SI         12.6094   16.3040    4.0805 Si      1  UNL1        0.0000
      7 SI         11.5318   11.1159    2.7183 Si      1  UNL1        0.0000
      8 C          15.7234   11.8746    4.0829 C.3     1  UNL1        0.0000
      9 H          15.1494   11.0504    3.6509 H       1  UNL1        0.0000
     10 H          16.7994   11.6844    3.9202 H       1  UNL1        0.0000
     11 C          15.4182   11.9176    5.5886 C.3     1  UNL1        0.0000
     12 H          16.1152   12.6239    6.0749 H       1  UNL1        0.0000
     13 H          15.6562   10.9235    6.0018 H       1  UNL1        0.0000
     14 C          16.1553   14.2573    3.7137 C.3     1  UNL1        0.0000
     15 H          16.4959   14.1866    4.7501 H       1  UNL1        0.0000
     16 H          17.0394   14.2721    3.0545 H       1  UNL1        0.0000
     17 C          15.3260   15.5559    3.5657 C.3     1  UNL1        0.0000
     18 H          15.2864   15.8393    2.4947 H       1  UNL1        0.0000
     19 H          15.8652   16.3737    4.0769 H       1  UNL1        0.0000
     20 C          15.1060   12.9333    1.9891 C.3     1  UNL1        0.0000
     21 H          14.9412   13.9231    1.5540 H       1  UNL1        0.0000
     22 H          16.0090   12.5024    1.5206 H       1  UNL1        0.0000
     23 C          13.8833   12.0370    1.6913 C.3     1  UNL1        0.0000
     24 H          14.2216   10.9916    1.6180 H       1  UNL1        0.0000
     25 H          13.5087   12.2987    0.6865 H       1  UNL1        0.0000
     26 C          11.6278   12.3980    7.4825 C.3     1  UNL1        0.0000
     27 H          11.2378   13.2629    6.9501 H       1  UNL1        0.0000
     28 H          11.2572   12.4391    8.5004 H       1  UNL1        0.0000
     29 H          11.2193   11.4996    7.0323 H       1  UNL1        0.0000
     30 C          14.0562   10.8225    8.5191 C.3     1  UNL1        0.0000
     31 H          15.1330   10.6918    8.5391 H       1  UNL1        0.0000
     32 H          13.6256    9.9198    8.0976 H       1  UNL1        0.0000
     33 H          13.7160   10.8966    9.5464 H       1  UNL1        0.0000
     34 C          14.2267   13.9412    8.3974 C.3     1  UNL1        0.0000
     35 C          14.2086   15.1162    7.4145 C.3     1  UNL1        0.0000
     36 H          14.7299   15.9771    7.8361 H       1  UNL1        0.0000
     37 H          13.1850   15.4179    7.2005 H       1  UNL1        0.0000
     38 H          14.6758   14.8555    6.4584 H       1  UNL1        0.0000
     39 C          13.3726   14.3105    9.6120 C.3     1  UNL1        0.0000
     40 H          13.7729   15.1956   10.1070 H       1  UNL1        0.0000
     41 H          13.3560   13.4975   10.3340 H       1  UNL1        0.0000
     42 H          12.3500   14.5238    9.3131 H       1  UNL1        0.0000
     43 C          15.6635   13.7284    8.8811 C.3     1  UNL1        0.0000
     44 H          16.0395   14.6275    9.3709 H       1  UNL1        0.0000
     45 H          16.3267   13.4964    8.0510 H       1  UNL1        0.0000
     46 H          15.7147   12.9099    9.5943 H       1  UNL1        0.0000
     47 C          12.8464   18.0634    4.8307 C.3     1  UNL1        0.0000
     48 H          11.9310   18.6444    4.8035 H       1  UNL1        0.0000
     49 H          13.6136   18.6251    4.3073 H       1  UNL1        0.0000
     50 H          13.1536   17.9816    5.8678 H       1  UNL1        0.0000
     51 C          11.5310   14.9964    4.9302 C.3     1  UNL1        0.0000
     52 H          10.5248   14.9406    4.4988 H       1  UNL1        0.0000
     53 H          11.3904   15.2311    5.9916 H       1  UNL1        0.0000
     54 C          11.9223   16.5273    2.2668 C.3     1  UNL1        0.0000
     55 C          11.8797   15.1341    1.6372 C.3     1  UNL1        0.0000
     56 H          11.5525   15.1860    0.5957 H       1  UNL1        0.0000
     57 H          11.1929   14.4798    2.1809 H       1  UNL1        0.0000
     58 H          12.8715   14.6773    1.6687 H       1  UNL1        0.0000
     59 C          10.5128   17.1161    2.2598 C.3     1  UNL1        0.0000
     60 H          10.1247   17.1844    1.2419 H       1  UNL1        0.0000
     61 H          10.5126   18.1151    2.6886 H       1  UNL1        0.0000
     62 H           9.8326   16.4984    2.8407 H       1  UNL1        0.0000
     63 C          12.8199   17.4269    1.4191 C.3     1  UNL1        0.0000
     64 H          12.4421   17.5052    0.3975 H       1  UNL1        0.0000
     65 H          13.8338   17.0353    1.3745 H       1  UNL1        0.0000
     66 H          12.8639   18.4289    1.8388 H       1  UNL1        0.0000
     67 C          10.6566   10.8873    1.0198 C.3     1  UNL1        0.0000
     68 H          11.2366   10.2521    0.3580 H       1  UNL1        0.0000
     69 H          10.5366   11.8464    0.5255 H       1  UNL1        0.0000
     70 H           9.6719   10.4448    1.1210 H       1  UNL1        0.0000
     71 C          10.3343   11.9591    3.9511 C.3     1  UNL1        0.0000
     72 H           9.7559   12.7422    3.4675 H       1  UNL1        0.0000
     73 H          10.9199   12.4024    4.7685 H       1  UNL1        0.0000
     74 H           9.6244   11.2545    4.3709 H       1  UNL1        0.0000
     75 C          11.8921    9.3321    3.4310 C.3     1  UNL1        0.0000
     76 C          12.2434    9.4607    4.9168 C.3     1  UNL1        0.0000
     77 H          12.6329    8.5177    5.3026 H       1  UNL1        0.0000
     78 H          11.3560    9.7124    5.4926 H       1  UNL1        0.0000
     79 H          12.9872   10.2442    5.0828 H       1  UNL1        0.0000
     80 C          10.6760    8.4139    3.2908 C.3     1  UNL1        0.0000
     81 H          10.8638    7.4545    3.7737 H       1  UNL1        0.0000
     82 H          10.4530    8.2280    2.2435 H       1  UNL1        0.0000
     83 H           9.7975    8.8580    3.7521 H       1  UNL1        0.0000
     84 C          13.0689    8.6685    2.7138 C.3     1  UNL1        0.0000
     85 H          13.1993    7.6415    3.0577 H       1  UNL1        0.0000
     86 H          13.9934    9.2051    2.9146 H       1  UNL1        0.0000
     87 H          12.9085    8.6457    1.6379 H       1  UNL1        0.0000
@<TRIPOS>BOND
     1    68    67    1
     2    64    63    1
     3    69    67    1
     4    56    55    1
     5    25    23    1
     6    67    70    1
     7    67     7    1
     8    60    59    1
     9    65    63    1
    10    63    66    1
    11    63    54    1
    12    22    20    1
    13    21    20    1
    14    24    23    1
    15    55    58    1
    16    55    57    1
    17    55    54    1
    18    87    84    1
    19    23    20    1
    20    23     3    1
    21    20     4    1
    22    82    80    1
    23    59    54    1
    24    59    61    1
    25    59    62    1
    26    54     6    1
    27    18    17    1
    28     3     7    1
    29    84    86    1
    30    84    85    1
    31    84    75    1
    32     7    75    1
    33     7    71    1
    34    16    14    1
    35    80    75    1
    36    80    83    1
    37    80    81    1
    38     4    14    1
    39     4     8    1
    40    75    76    1
    41    72    71    1
    42    17    14    1
    43    17    19    1
    44    17     2    1
    45     9     8    1
    46    14    15    1
    47    10     8    1
    48    71    74    1
    49    71    73    1
    50     6     2    1
    51     6    47    1
    52     6    51    1
    53     8    11    1
    54    49    47    1
    55    52    51    1
    56    48    47    1
    57    47    50    1
    58    76    79    1
    59    76    77    1
    60    76    78    1
    61    51    53    1
    62    11     1    1
    63    11    13    1
    64    11    12    1
    65     1     5    1
    66    38    35    1
    67    27    26    1
    68    29    26    1
    69    37    35    1
    70    35    36    1
    71    35    34    1
    72     5    26    1
    73     5    34    1
    74     5    30    1
    75    26    28    1
    76    45    43    1
    77    32    30    1
    78    34    43    1
    79    34    39    1
    80    30    31    1
    81    30    33    1
    82    43    44    1
    83    43    46    1
    84    42    39    1
    85    39    40    1
    86    39    41    1
