@<TRIPOS>MOLECULE
2,3,19,21,23,25
 38 42 0 0 0
SMALL
GASTEIGER

@<TRIPOS>ATOM
      1 N           5.1125   15.1905   10.5352 N.3     1  UNL1        0.0000
      2 C           2.3756   14.2677   10.0284 C.3     1  UNL1        0.0000
      3 C           2.1109   12.2638    8.1882 C.3     1  UNL1        0.0000
      4 H           2.4672   11.2455    8.0285 H       1  UNL1        0.0000
      5 C           2.8227   14.6724   11.4324 C.3     1  UNL1        0.0000
      6 H           2.3576   14.0270   12.1845 H       1  UNL1        0.0000
      7 H           2.5155   15.6958   11.6656 H       1  UNL1        0.0000
      8 C           4.3398   14.5321   11.6044 C.3     1  UNL1        0.0000
      9 H           4.6368   14.9335   12.5879 H       1  UNL1        0.0000
     10 H           4.5968   13.4684   11.5886 H       1  UNL1        0.0000
     11 C           4.9574   16.6465   10.6367 C.3     1  UNL1        0.0000
     12 H           5.2345   17.0057   11.6377 H       1  UNL1        0.0000
     13 H           3.9305   16.9361   10.4343 H       1  UNL1        0.0000
     14 H           5.6042   17.1306    9.9080 H       1  UNL1        0.0000
     15 C           6.5326   14.8938   10.7471 C.3     1  UNL1        0.0000
     16 H           6.8838   15.2922   11.7091 H       1  UNL1        0.0000
     17 H           7.1236   15.3443    9.9518 H       1  UNL1        0.0000
     18 H           6.7048   13.8206   10.7398 H       1  UNL1        0.0000
     19 B           2.3458   12.7641    9.6971 B       1  UNL1        0.0000
     20 H           2.7102   11.9805   10.5133 H       1  UNL1        0.0000
     21 B           2.1585   13.3283    6.8934 B       1  UNL1        0.0000
     22 H           2.7053   12.9229    5.9030 H       1  UNL1        0.0000
     23 B           1.9713   15.0258    7.2677 B       1  UNL1        0.0000
     24 H           2.3122   15.9047    6.5339 H       1  UNL1        0.0000
     25 B           1.9786   15.4017    9.0207 B       1  UNL1        0.0000
     26 H           2.0920   16.5150    9.4386 H       1  UNL1        0.0000
     27 B           0.6406   14.1806    9.7177 B       1  UNL1        0.0000
     28 H           0.0528   14.4390   10.7072 H       1  UNL1        0.0000
     29 B           0.6322   12.4061    9.0740 B       1  UNL1        0.0000
     30 H           0.2000   11.4720    9.6479 H       1  UNL1        0.0000
     31 B           0.6496   12.4588    7.3234 B       1  UNL1        0.0000
     32 H           0.2574   11.5303    6.7120 H       1  UNL1        0.0000
     33 B           0.5355   14.1159    6.7793 B       1  UNL1        0.0000
     34 H          -0.0206   14.3456    5.7648 H       1  UNL1        0.0000
     35 B           0.4426   15.2037    8.1429 B       1  UNL1        0.0000
     36 H          -0.2144   16.1843    8.1064 H       1  UNL1        0.0000
     37 B          -0.3011   13.6251    8.3167 B       1  UNL1        0.0000
     38 H          -1.4743   13.5662    8.4149 H       1  UNL1        0.0000
@<TRIPOS>BOND
     1    34    33    1
     2    22    21    1
     3    24    23    1
     4    32    31    1
     5    33    23    1
     6    33    31    1
     7    33    35    1
     8    21    23    1
     9    21     3    1
    10    23    35    1
    11    31     3    1
    12    31    29    1
    13     4     3    1
    14    36    35    1
    15    35    37    1
    16     3    19    1
    17    37    38    1
    18    37    29    1
    19    37    27    1
    20    25    26    1
    21    25     2    1
    22    29    30    1
    23    29    19    1
    24    19     2    1
    25    19    20    1
    26    27     2    1
    27    27    28    1
    28    14    11    1
    29    17    15    1
    30     2     5    1
    31    13    11    1
    32     1    11    1
    33     1    15    1
    34     1     8    1
    35    11    12    1
    36    18    15    1
    37    15    16    1
    38     5     8    1
    39     5     7    1
    40     5     6    1
    41    10     8    1
    42     8     9    1
