@<TRIPOS>MOLECULE
1,2,3,4,7,8
 59 59 0 0 0
SMALL
GASTEIGER

@<TRIPOS>ATOM
      1 O           3.3669    3.7957    9.5789 O.3     1  UNL1        0.0000
      2 N           5.1702    6.1370   12.5922 N.pl3   1  UNL1        0.0000
      3 N           3.9978    6.2011   10.2487 N.pl3   1  UNL1        0.0000
      4 N           3.5163    3.6458   12.2842 N.3     1  UNL1        0.0000
      5 SI          6.5937    6.9325   13.1685 Si      1  UNL1        0.0000
      6 SI          3.7976    3.0077   13.8579 Si      1  UNL1        0.0000
      7 C           3.3608    6.8573   11.2650 C.2     1  UNL1        0.0000
      8 C           3.9613    6.8494   12.4977 C.2     1  UNL1        0.0000
      9 C           3.3943    7.5261   13.6576 C.ar    1  UNL1        0.0000
     10 C           3.6189    7.0179   14.9399 C.ar    1  UNL1        0.0000
     11 C           3.0811    7.6328   16.0505 C.ar    1  UNL1        0.0000
     12 C           2.3035    8.7806   15.9305 C.ar    1  UNL1        0.0000
     13 C           2.0831    9.2918   14.6581 C.ar    1  UNL1        0.0000
     14 C           2.6156    8.6798   13.5398 C.ar    1  UNL1        0.0000
     15 C           1.7324    9.4416   17.1490 C.3     1  UNL1        0.0000
     16 C           3.4213    4.6744    8.4719 C.3     1  UNL1        0.0000
     17 C           3.4113    6.1543    8.9425 C.3     1  UNL1        0.0000
     18 C           2.1229    3.8269   10.2674 C.3     1  UNL1        0.0000
     19 C           2.3329    3.1507   11.6233 C.3     1  UNL1        0.0000
     20 C           6.6813    8.7041   12.4301 C.3     1  UNL1        0.0000
     21 C           6.8068    7.1641   15.0640 C.3     1  UNL1        0.0000
     22 C           8.0599    5.8474   12.5863 C.3     1  UNL1        0.0000
     23 C           2.5840    3.7624   15.1534 C.3     1  UNL1        0.0000
     24 C           3.4890    1.1118   13.9737 C.3     1  UNL1        0.0000
     25 C           5.6341    3.2998   14.2812 C.3     1  UNL1        0.0000
     26 H           4.2092    6.1205   15.0399 H       1  UNL1        0.0000
     27 H           3.2614    7.2170   17.0323 H       1  UNL1        0.0000
     28 H           1.4892   10.1882   14.5409 H       1  UNL1        0.0000
     29 H           2.4427    9.1132   12.5652 H       1  UNL1        0.0000
     30 H           1.0856   10.2716   16.8754 H       1  UNL1        0.0000
     31 H           2.5322    9.8220   17.7843 H       1  UNL1        0.0000
     32 H           1.1549    8.7278   17.7352 H       1  UNL1        0.0000
     33 H           2.5866    4.4751    7.7838 H       1  UNL1        0.0000
     34 H           4.3688    4.4458    7.9734 H       1  UNL1        0.0000
     35 H           2.3809    6.5548    8.9414 H       1  UNL1        0.0000
     36 H           3.9964    6.7496    8.2244 H       1  UNL1        0.0000
     37 H           1.7866    4.8598   10.4316 H       1  UNL1        0.0000
     38 H           1.3600    3.2944    9.6756 H       1  UNL1        0.0000
     39 H           1.4258    3.3200   12.2280 H       1  UNL1        0.0000
     40 H           2.4058    2.0623   11.4543 H       1  UNL1        0.0000
     41 H           7.6408    9.1749   12.6179 H       1  UNL1        0.0000
     42 H           5.9141    9.3306   12.8765 H       1  UNL1        0.0000
     43 H           6.5150    8.7035   11.3562 H       1  UNL1        0.0000
     44 H           7.7935    7.5677   15.2714 H       1  UNL1        0.0000
     45 H           6.0785    7.8560   15.4740 H       1  UNL1        0.0000
     46 H           6.7191    6.2286   15.6083 H       1  UNL1        0.0000
     47 H           8.5355    6.2498   11.6976 H       1  UNL1        0.0000
     48 H           8.8199    5.7764   13.3569 H       1  UNL1        0.0000
     49 H           7.7173    4.8398   12.3572 H       1  UNL1        0.0000
     50 H           3.0590    3.8952   16.1199 H       1  UNL1        0.0000
     51 H           2.2134    4.7330   14.8344 H       1  UNL1        0.0000
     52 H           1.7248    3.1151   15.3055 H       1  UNL1        0.0000
     53 H           3.6804    0.7538   14.9801 H       1  UNL1        0.0000
     54 H           4.1351    0.5563   13.3021 H       1  UNL1        0.0000
     55 H           2.4602    0.8605   13.7325 H       1  UNL1        0.0000
     56 H           5.8159    3.1439   15.3394 H       1  UNL1        0.0000
     57 H           5.9296    4.3133   14.0268 H       1  UNL1        0.0000
     58 H           6.2755    2.6135   13.7334 H       1  UNL1        0.0000
     59 H           2.4068    7.3589   11.0758 H       1  UNL1        0.0000
@<TRIPOS>BOND
     1    33    16    1
     2    34    16    1
     3    36    17    1
     4    16    17    1
     5    16     1    1
     6    35    17    1
     7    17     3    1
     8     1    18    1
     9    38    18    1
    10     3     7    1
    11    18    37    1
    12    18    19    1
    13    59     7    1
    14     7     8    2
    15    43    20    1
    16    40    19    1
    17    19    39    1
    18    19     4    1
    19    47    22    1
    20     4     6    1
    21    49    22    1
    22    20    41    1
    23    20    42    1
    24    20     5    1
    25     8     2    1
    26     8     9    1
    27    29    14    1
    28    22     5    1
    29    22    48    1
    30     2     5    1
    31     5    21    1
    32    54    24    1
    33    14     9   ar
    34    14    13   ar
    35     9    10   ar
    36    55    24    1
    37    58    25    1
    38     6    24    1
    39     6    25    1
    40     6    23    1
    41    24    53    1
    42    57    25    1
    43    25    56    1
    44    28    13    1
    45    13    12   ar
    46    51    23    1
    47    10    26    1
    48    10    11   ar
    49    21    44    1
    50    21    45    1
    51    21    46    1
    52    23    52    1
    53    23    50    1
    54    12    11   ar
    55    12    15    1
    56    11    27    1
    57    30    15    1
    58    15    32    1
    59    15    31    1
