@<TRIPOS>MOLECULE
1,3,6,33
 56 56 0 0 0
SMALL
GASTEIGER

@<TRIPOS>ATOM
      1 C           4.3791    8.9460    4.9608 C.2     1  UNL1        0.0000
      2 O           4.3296    8.0533    5.7347 O.2     1  UNL1        0.0000
      3 C           4.0170   10.7796    1.9817 C.2     1  UNL1        0.0000
      4 O           3.6979   11.2286    0.9442 O.2     1  UNL1        0.0000
      5 N           4.8968   12.7976    3.2038 N.3     1  UNL1        0.0000
      6 B           4.5406   11.4325    3.4720 B       1  UNL1        0.0000
      7 SI          6.2123   13.0996    2.0707 Si      1  UNL1        0.0000
      8 C           7.1212   11.4628    1.7131 C.3     1  UNL1        0.0000
      9 H           7.3022   10.8863    2.6151 H       1  UNL1        0.0000
     10 H           8.0813   11.6493    1.2421 H       1  UNL1        0.0000
     11 H           6.5465   10.8330    1.0423 H       1  UNL1        0.0000
     12 C           7.4339   14.2980    2.9090 C.3     1  UNL1        0.0000
     13 H           6.9584   15.2331    3.1815 H       1  UNL1        0.0000
     14 H           8.2515   14.5301    2.2349 H       1  UNL1        0.0000
     15 H           7.8624   13.8711    3.8093 H       1  UNL1        0.0000
     16 C           5.6223   13.8218    0.4055 C.3     1  UNL1        0.0000
     17 H           4.7467   13.2976    0.0367 H       1  UNL1        0.0000
     18 H           6.4024   13.7214   -0.3436 H       1  UNL1        0.0000
     19 H           5.3744   14.8751    0.4769 H       1  UNL1        0.0000
     20 SI          3.9726   14.0745    3.9804 Si      1  UNL1        0.0000
     21 C           2.2087   13.4024    4.2561 C.3     1  UNL1        0.0000
     22 H           1.8234   12.9298    3.3569 H       1  UNL1        0.0000
     23 H           1.5208   14.1959    4.5309 H       1  UNL1        0.0000
     24 H           2.1938   12.6655    5.0493 H       1  UNL1        0.0000
     25 C           4.7555   14.6063    5.6347 C.3     1  UNL1        0.0000
     26 H           4.7182   13.8108    6.3711 H       1  UNL1        0.0000
     27 H           4.2322   15.4634    6.0473 H       1  UNL1        0.0000
     28 H           5.7962   14.8873    5.5108 H       1  UNL1        0.0000
     29 C           3.8228   15.5896    2.8354 C.3     1  UNL1        0.0000
     30 H           4.7858   16.0392    2.6227 H       1  UNL1        0.0000
     31 H           3.2080   16.3488    3.3087 H       1  UNL1        0.0000
     32 H           3.3579   15.3356    1.8890 H       1  UNL1        0.0000
     33 B           4.5500   10.5355    4.8762 B       1  UNL1        0.0000
     34 C           4.7725   11.0799    6.3350 C.ar    1  UNL1        0.0000
     35 C           3.6989   11.1579    7.2331 C.ar    1  UNL1        0.0000
     36 C           3.8870   11.6735    8.5150 C.ar    1  UNL1        0.0000
     37 C           5.1509   12.0972    8.8942 C.ar    1  UNL1        0.0000
     38 H           5.2967   12.4985    9.8878 H       1  UNL1        0.0000
     39 C           6.2357   11.9995    8.0373 C.ar    1  UNL1        0.0000
     40 C           6.0466   11.4829    6.7561 C.ar    1  UNL1        0.0000
     41 C           2.3343   10.6609    6.8425 C.3     1  UNL1        0.0000
     42 H           2.2921   10.4260    5.7804 H       1  UNL1        0.0000
     43 H           1.5660   11.3994    7.0714 H       1  UNL1        0.0000
     44 H           2.0968    9.7540    7.4009 H       1  UNL1        0.0000
     45 C           2.7468   11.7658    9.4853 C.3     1  UNL1        0.0000
     46 H           3.0920   12.1442   10.4444 H       1  UNL1        0.0000
     47 H           2.2931   10.7879    9.6426 H       1  UNL1        0.0000
     48 H           1.9724   12.4362    9.1111 H       1  UNL1        0.0000
     49 C           7.5926   12.4460    8.4935 C.3     1  UNL1        0.0000
     50 H           8.3041   11.6216    8.4534 H       1  UNL1        0.0000
     51 H           7.5503   12.8154    9.5153 H       1  UNL1        0.0000
     52 H           7.9720   13.2428    7.8539 H       1  UNL1        0.0000
     53 C           7.2289   11.3433    5.8420 C.3     1  UNL1        0.0000
     54 H           7.7179   12.3057    5.6957 H       1  UNL1        0.0000
     55 H           6.9236   10.9548    4.8739 H       1  UNL1        0.0000
     56 H           7.9626   10.6616    6.2734 H       1  UNL1        0.0000
@<TRIPOS>BOND
     1    18    16    1
     2    17    16    1
     3    16    19    1
     4    16     7    1
     5     4     3    2
     6    11     8    1
     7    10     8    1
     8     8     7    1
     9     8     9    1
    10    32    29    1
    11     3     6    1
    12     7    12    1
    13     7     5    1
    14    14    12    1
    15    30    29    1
    16    29    31    1
    17    29    20    1
    18    12    13    1
    19    12    15    1
    20     5     6    1
    21     5    20    1
    22    22    21    1
    23     6    33    1
    24    20    21    1
    25    20    25    1
    26    21    23    1
    27    21    24    1
    28    55    53    1
    29    33     1    1
    30    33    34    1
    31     1     2    2
    32    28    25    1
    33    25    27    1
    34    25    26    1
    35    54    53    1
    36    42    41    1
    37    53    56    1
    38    53    40    1
    39    34    40   ar
    40    34    35   ar
    41    40    39   ar
    42    41    43    1
    43    41    35    1
    44    41    44    1
    45    35    36   ar
    46    52    49    1
    47    39    49    1
    48    39    37   ar
    49    50    49    1
    50    49    51    1
    51    36    37   ar
    52    36    45    1
    53    37    38    1
    54    48    45    1
    55    45    47    1
    56    45    46    1
