@<TRIPOS>MOLECULE
25,62,76,77
 91 94 0 0 0
SMALL
GASTEIGER

@<TRIPOS>ATOM
      1 C           4.5974   14.2865    9.7400 C.3     1  UNL1        0.0000
      2 P           5.7548   12.9949   10.0625 P.3     1  UNL1        0.0000
      3 C           5.1941   12.2876   11.6508 C.ar    1  UNL1        0.0000
      4 C           5.3820   10.9518   11.9738 C.ar    1  UNL1        0.0000
      5 H           5.8602   10.2959   11.2649 H       1  UNL1        0.0000
      6 C           4.9390   10.4544   13.1861 C.ar    1  UNL1        0.0000
      7 H           5.0938    9.4126   13.4272 H       1  UNL1        0.0000
      8 C           4.2933   11.2862   14.0846 C.ar    1  UNL1        0.0000
      9 H           3.9448   10.8972   15.0300 H       1  UNL1        0.0000
     10 C           4.0839   12.6164   13.7610 C.ar    1  UNL1        0.0000
     11 H           3.5652   13.2661   14.4510 H       1  UNL1        0.0000
     12 C           4.5322   13.1158   12.5530 C.ar    1  UNL1        0.0000
     13 H           4.3441   14.1455   12.2836 H       1  UNL1        0.0000
     14 C           7.2577   13.9427   10.4848 C.ar    1  UNL1        0.0000
     15 C           7.3368   14.6953   11.6498 C.ar    1  UNL1        0.0000
     16 H           6.5264   14.6718   12.3619 H       1  UNL1        0.0000
     17 C           8.4563   15.4675   11.9013 C.ar    1  UNL1        0.0000
     18 H           8.5132   16.0491   12.8103 H       1  UNL1        0.0000
     19 C           9.4997   15.5017   10.9913 C.ar    1  UNL1        0.0000
     20 H          10.3704   16.1101   11.1872 H       1  UNL1        0.0000
     21 C           9.4220   14.7579    9.8258 C.ar    1  UNL1        0.0000
     22 H          10.2347   14.7898    9.1133 H       1  UNL1        0.0000
     23 C           8.3050   13.9820    9.5739 C.ar    1  UNL1        0.0000
     24 H           8.2333   13.4018    8.6627 H       1  UNL1        0.0000
     25 N           6.0541   11.8836    8.9275 N.3     1  UNL1        0.0000
     26 SI          7.3105   10.6708    9.0154 Si      1  UNL1        0.0000
     27 C           8.3852   10.7890   10.5982 C.3     1  UNL1        0.0000
     28 H           9.3960   11.1134   10.3712 H       1  UNL1        0.0000
     29 H           8.4579    9.8277   11.0957 H       1  UNL1        0.0000
     30 H           7.9699   11.4997   11.3080 H       1  UNL1        0.0000
     31 C           8.4866   10.8885    7.5113 C.3     1  UNL1        0.0000
     32 H           8.4030   10.0425    6.8364 H       1  UNL1        0.0000
     33 H           9.5258   10.9569    7.8213 H       1  UNL1        0.0000
     34 H           8.2442   11.7849    6.9425 H       1  UNL1        0.0000
     35 C           6.4926    8.9441    8.8764 C.3     1  UNL1        0.0000
     36 H           6.0800    8.7881    7.8841 H       1  UNL1        0.0000
     37 H           5.6918    8.7817    9.5923 H       1  UNL1        0.0000
     38 H           7.2409    8.1755    9.0390 H       1  UNL1        0.0000
     39 P           3.0953   13.7194    9.0276 P.3     1  UNL1        0.0000
     40 C           2.2742   12.7613   10.3346 C.ar    1  UNL1        0.0000
     41 C           2.6257   11.4234   10.4569 C.ar    1  UNL1        0.0000
     42 H           3.3447   11.0054    9.7646 H       1  UNL1        0.0000
     43 C           2.0621   10.6424   11.4476 C.ar    1  UNL1        0.0000
     44 H           2.3348    9.6009   11.5368 H       1  UNL1        0.0000
     45 C           1.1492   11.2002   12.3275 C.ar    1  UNL1        0.0000
     46 H           0.7056   10.5920   13.1022 H       1  UNL1        0.0000
     47 C           0.8041   12.5367   12.2143 C.ar    1  UNL1        0.0000
     48 H           0.0918   12.9701   12.9016 H       1  UNL1        0.0000
     49 C           1.3645   13.3197   11.2209 C.ar    1  UNL1        0.0000
     50 H           1.0919   14.3614   11.1271 H       1  UNL1        0.0000
     51 C           2.1440   15.2561    8.8325 C.ar    1  UNL1        0.0000
     52 C           1.3387   15.4505    7.7190 C.ar    1  UNL1        0.0000
     53 H           1.2480   14.6548    6.9927 H       1  UNL1        0.0000
     54 C           0.6677   16.6482    7.5442 C.ar    1  UNL1        0.0000
     55 H           0.0426   16.7959    6.6749 H       1  UNL1        0.0000
     56 C           0.8025   17.6575    8.4832 C.ar    1  UNL1        0.0000
     57 H           0.2826   18.5948    8.3455 H       1  UNL1        0.0000
     58 C           1.6090   17.4682    9.5946 C.ar    1  UNL1        0.0000
     59 H           1.7172   18.2585   10.3233 H       1  UNL1        0.0000
     60 C           2.2833   16.2741    9.7711 C.ar    1  UNL1        0.0000
     61 H           2.9403   16.1287   10.6143 H       1  UNL1        0.0000
     62 N           3.1590   12.8977    7.6384 N.3     1  UNL1        0.0000
     63 SI          1.8915   11.8035    7.1366 Si      1  UNL1        0.0000
     64 C           2.4218    9.9758    7.3850 C.3     1  UNL1        0.0000
     65 H           3.4402    9.8858    7.7548 H       1  UNL1        0.0000
     66 H           2.3781    9.4363    6.4444 H       1  UNL1        0.0000
     67 H           1.7677    9.4671    8.0876 H       1  UNL1        0.0000
     68 C           0.2364   12.0748    8.0572 C.3     1  UNL1        0.0000
     69 H           0.1552   13.0801    8.4600 H       1  UNL1        0.0000
     70 H           0.1307   11.3858    8.8887 H       1  UNL1        0.0000
     71 H          -0.6036   11.9133    7.3898 H       1  UNL1        0.0000
     72 C           1.5604   12.1040    5.2730 C.3     1  UNL1        0.0000
     73 H           1.0357   13.0360    5.0809 H       1  UNL1        0.0000
     74 H           0.9379   11.3008    4.8944 H       1  UNL1        0.0000
     75 H           2.4777   12.1019    4.6936 H       1  UNL1        0.0000
     76 O           5.8820   14.7906    7.7592 O.2     1  UNL1        0.0000
     77 C           5.2527   15.2748    8.7993 C.2     1  UNL1        0.0000
     78 N           5.1426   16.4847    9.1796 N.2     1  UNL1        0.0000
     79 C           5.7680   17.6239    8.5417 C.3     1  UNL1        0.0000
     80 C           7.2783   17.5952    8.8150 C.3     1  UNL1        0.0000
     81 H           7.4568   17.5754    9.8879 H       1  UNL1        0.0000
     82 H           7.7634   18.4706    8.3871 H       1  UNL1        0.0000
     83 H           7.7207   16.6996    8.3852 H       1  UNL1        0.0000
     84 C           5.1589   18.8619    9.2125 C.3     1  UNL1        0.0000
     85 H           5.3183   18.8090   10.2856 H       1  UNL1        0.0000
     86 H           4.0882   18.8916    9.0263 H       1  UNL1        0.0000
     87 H           5.6159   19.7698    8.8249 H       1  UNL1        0.0000
     88 C           5.5110   17.6969    7.0308 C.3     1  UNL1        0.0000
     89 H           5.8619   16.7862    6.5504 H       1  UNL1        0.0000
     90 H           6.0331   18.5509    6.6011 H       1  UNL1        0.0000
     91 H           4.4422   17.8102    6.8497 H       1  UNL1        0.0000
@<TRIPOS>BOND
     1    75    72    1
     2    74    72    1
     3    73    72    1
     4    72    63    1
     5    66    64    1
     6    89    88    1
     7    90    88    1
     8    55    54    1
     9    32    31    1
    10    91    88    1
    11    34    31    1
    12    53    52    1
    13    88    79    1
    14    63    64    1
    15    63    62    1
    16    63    68    1
    17    64    65    1
    18    64    67    1
    19    71    68    1
    20    31    33    1
    21    31    26    1
    22    54    52   ar
    23    54    56   ar
    24    62    39    1
    25    52    51   ar
    26    76    77    1
    27    36    35    1
    28    68    69    1
    29    68    70    1
    30    57    56    1
    31    83    80    1
    32    82    80    1
    33    56    58   ar
    34    79    80    1
    35    79    78    1
    36    79    84    1
    37    24    23    1
    38    77    78    2
    39    77     1    1
    40    80    81    1
    41    87    84    1
    42    51    39    1
    43    51    60   ar
    44    35    26    1
    45    35    38    1
    46    35    37    1
    47    25    26    1
    48    25     2    1
    49    26    27    1
    50    86    84    1
    51    39     1    1
    52    39    40    1
    53    22    21    1
    54    84    85    1
    55    23    21   ar
    56    23    14   ar
    57    58    60   ar
    58    58    59    1
    59     1     2    1
    60    42    41    1
    61    60    61    1
    62    21    19   ar
    63     2    14    1
    64     2     3    1
    65    40    41   ar
    66    40    49   ar
    67    28    27    1
    68    41    43   ar
    69    14    15   ar
    70    27    29    1
    71    27    30    1
    72    19    20    1
    73    19    17   ar
    74    50    49    1
    75    49    47   ar
    76     5     4    1
    77    43    44    1
    78    43    45   ar
    79    15    17   ar
    80    15    16    1
    81     3     4   ar
    82     3    12   ar
    83    17    18    1
    84     4     6   ar
    85    47    45   ar
    86    47    48    1
    87    13    12    1
    88    45    46    1
    89    12    10   ar
    90     6     7    1
    91     6     8   ar
    92    10     8   ar
    93    10    11    1
    94     8     9    1
