@<TRIPOS>MOLECULE
1,2,5
 5 4 0 0 0
SMALL
GASTEIGER

@<TRIPOS>ATOM
      1 O           8.3651   21.4764    7.4356 O.3     1  UNL1        0.0000
      2 F           6.7120   22.9827    7.8363 F       1  UNL1        0.0000
      3 F           7.1369   22.4031    5.6569 F       1  UNL1        0.0000
      4 F           8.6555   23.6327    6.8655 F       1  UNL1        0.0000
      5 B           7.7167   22.5949    6.8622 B       1  UNL1        0.0000
@<TRIPOS>BOND
     1     3     5    1
     2     5     4    1
     3     5     1    1
     4     5     2    1
