@<TRIPOS>MOLECULE
1,2,5
 79 78 0 0 0
SMALL
GASTEIGER

@<TRIPOS>ATOM
      1 P           5.1495   -1.7424   12.8650 P.3     1  UNL1        0.0000
      2 P           6.3248    2.3362   14.6905 P.3     1  UNL1        0.0000
      3 SI          7.1460   -2.3492   15.0723 Si      1  UNL1        0.0000
      4 SI          7.5316    0.2191   16.5039 Si      1  UNL1        0.0000
      5 N           6.8463   -0.6463   15.1696 N.3     1  UNL1        0.0000
      6 C           8.9194   -2.7638   14.4718 C.3     1  UNL1        0.0000
      7 H           9.5887   -2.7957   15.3236 H       1  UNL1        0.0000
      8 H           9.3077   -2.0254   13.7788 H       1  UNL1        0.0000
      9 H           8.9654   -3.7357   13.9899 H       1  UNL1        0.0000
     10 C           6.9203   -3.2739   16.7294 C.3     1  UNL1        0.0000
     11 H           7.7068   -2.9977   17.4212 H       1  UNL1        0.0000
     12 H           6.9772   -4.3477   16.5830 H       1  UNL1        0.0000
     13 H           5.9712   -3.0521   17.2052 H       1  UNL1        0.0000
     14 C           5.8314   -3.0922   13.8931 C.3     1  UNL1        0.0000
     15 H           6.2186   -3.9015   13.2794 H       1  UNL1        0.0000
     16 H           5.0281   -3.4983   14.5028 H       1  UNL1        0.0000
     17 C           3.2847   -2.0550   12.9287 C.3     1  UNL1        0.0000
     18 C           2.8410   -3.5150   12.8642 C.3     1  UNL1        0.0000
     19 H           1.7527   -3.5600   12.9090 H       1  UNL1        0.0000
     20 H           3.2296   -4.0991   13.6946 H       1  UNL1        0.0000
     21 H           3.1591   -3.9841   11.9372 H       1  UNL1        0.0000
     22 C           2.5790   -1.2567   11.8340 C.3     1  UNL1        0.0000
     23 H           1.5153   -1.1755   12.0583 H       1  UNL1        0.0000
     24 H           2.6790   -1.7441   10.8668 H       1  UNL1        0.0000
     25 H           2.9922   -0.2519   11.7725 H       1  UNL1        0.0000
     26 C           2.9187   -1.4436   14.2887 C.3     1  UNL1        0.0000
     27 H           1.8449   -1.4975   14.4647 H       1  UNL1        0.0000
     28 H           3.2226   -0.3840   14.3046 H       1  UNL1        0.0000
     29 H           3.4292   -1.9590   15.1038 H       1  UNL1        0.0000
     30 C           5.8933   -2.0622   11.1620 C.3     1  UNL1        0.0000
     31 C           5.5239   -0.9087   10.2288 C.3     1  UNL1        0.0000
     32 H           6.1464   -0.9375    9.3344 H       1  UNL1        0.0000
     33 H           5.6891    0.0457   10.7314 H       1  UNL1        0.0000
     34 H           4.4855   -0.9546    9.9165 H       1  UNL1        0.0000
     35 C           7.3994   -1.9720   11.4299 C.3     1  UNL1        0.0000
     36 H           7.9495   -1.8611   10.4960 H       1  UNL1        0.0000
     37 H           7.7690   -2.8560   11.9409 H       1  UNL1        0.0000
     38 H           7.6013   -1.0937   12.0594 H       1  UNL1        0.0000
     39 C           5.5324   -3.3975   10.5208 C.3     1  UNL1        0.0000
     40 H           6.1588   -3.5638    9.6443 H       1  UNL1        0.0000
     41 H           4.4947   -3.4034   10.1947 H       1  UNL1        0.0000
     42 H           5.6860   -4.2291   11.2060 H       1  UNL1        0.0000
     43 C           6.5892   -0.0726   18.1484 C.3     1  UNL1        0.0000
     44 H           5.5276   -0.2354   17.9970 H       1  UNL1        0.0000
     45 H           6.7081    0.7601   18.8348 H       1  UNL1        0.0000
     46 H           6.9877   -0.9528   18.6393 H       1  UNL1        0.0000
     47 C           9.3578   -0.2184   16.8577 C.3     1  UNL1        0.0000
     48 H           9.4311   -1.2261   17.2484 H       1  UNL1        0.0000
     49 H           9.7779    0.4510   17.6014 H       1  UNL1        0.0000
     50 H           9.9794   -0.1637   15.9707 H       1  UNL1        0.0000
     51 C           7.5357    2.0771   16.0363 C.3     1  UNL1        0.0000
     52 H           7.3331    2.7290   16.8823 H       1  UNL1        0.0000
     53 H           8.5253    2.3250   15.6608 H       1  UNL1        0.0000
     54 C           7.2700    3.4271   13.4671 C.3     1  UNL1        0.0000
     55 C           6.3040    4.0483   12.4598 C.3     1  UNL1        0.0000
     56 H           6.8522    4.4010   11.5860 H       1  UNL1        0.0000
     57 H           5.7815    4.8993   12.8908 H       1  UNL1        0.0000
     58 H           5.5750    3.3108   12.1300 H       1  UNL1        0.0000
     59 C           8.1488    4.5189   14.0739 C.3     1  UNL1        0.0000
     60 H           8.6342    5.0742   13.2712 H       1  UNL1        0.0000
     61 H           8.9292    4.1105   14.7112 H       1  UNL1        0.0000
     62 H           7.5602    5.2197   14.6595 H       1  UNL1        0.0000
     63 C           8.1334    2.3893   12.7357 C.3     1  UNL1        0.0000
     64 H           8.7175    2.8560   11.9433 H       1  UNL1        0.0000
     65 H           7.4788    1.6258   12.2839 H       1  UNL1        0.0000
     66 H           8.8186    1.8904   13.4228 H       1  UNL1        0.0000
     67 C           4.9041    3.2390   15.5399 C.3     1  UNL1        0.0000
     68 C           5.2511    4.5890   16.1577 C.3     1  UNL1        0.0000
     69 H           4.4254    4.9279   16.7835 H       1  UNL1        0.0000
     70 H           5.4138    5.3382   15.3862 H       1  UNL1        0.0000
     71 H           6.1423    4.5315   16.7798 H       1  UNL1        0.0000
     72 C           4.4664    2.2395   16.6160 C.3     1  UNL1        0.0000
     73 H           3.4834    2.5017   17.0061 H       1  UNL1        0.0000
     74 H           5.1666    2.2119   17.4455 H       1  UNL1        0.0000
     75 H           4.4088    1.2352   16.1726 H       1  UNL1        0.0000
     76 C           3.7444    3.3891   14.5549 C.3     1  UNL1        0.0000
     77 H           2.8353    3.6682   15.0878 H       1  UNL1        0.0000
     78 H           3.5651    2.4429   14.0421 H       1  UNL1        0.0000
     79 H           3.9421    4.1504   13.8070 H       1  UNL1        0.0000
@<TRIPOS>BOND
     1    32    31    1
     2    40    39    1
     3    34    31    1
     4    41    39    1
     5    31    33    1
     6    31    30    1
     7    36    35    1
     8    39    30    1
     9    39    42    1
    10    24    22    1
    11    30    35    1
    12    30     1    1
    13    35    37    1
    14    35    38    1
    15    56    55    1
    16    25    22    1
    17    22    23    1
    18    22    17    1
    19    21    18    1
    20    64    63    1
    21    58    55    1
    22    65    63    1
    23    55    57    1
    24    55    54    1
    25    63    66    1
    26    63    54    1
    27    18    19    1
    28    18    17    1
    29    18    20    1
    30     1    17    1
    31     1    14    1
    32    17    26    1
    33    60    59    1
    34    15    14    1
    35    54    59    1
    36    54     2    1
    37     8     6    1
    38    79    76    1
    39    14    16    1
    40    14     3    1
    41     9     6    1
    42    78    76    1
    43    59    62    1
    44    59    61    1
    45    26    28    1
    46    26    27    1
    47    26    29    1
    48     6     3    1
    49     6     7    1
    50    76    77    1
    51    76    67    1
    52     2    67    1
    53     2    51    1
    54     3     5    1
    55     3    10    1
    56     5     4    1
    57    70    68    1
    58    67    68    1
    59    67    72    1
    60    53    51    1
    61    50    47    1
    62    51     4    1
    63    51    52    1
    64    68    71    1
    65    68    69    1
    66    75    72    1
    67     4    47    1
    68     4    43    1
    69    12    10    1
    70    72    73    1
    71    72    74    1
    72    10    13    1
    73    10    11    1
    74    47    48    1
    75    47    49    1
    76    44    43    1
    77    43    46    1
    78    43    45    1
