@<TRIPOS>MOLECULE
1,2,3
 85 89 0 0 0
SMALL
GASTEIGER

@<TRIPOS>ATOM
      1 P          -0.7712   -0.5996    3.0996 P.3     1  UNL1       -0.0971
      2 P           2.9363    1.8278    4.1711 P.3     1  UNL1       -0.0939
      3 N           0.3201    2.0487    2.9123 N.pl3   1  UNL1       -0.2410
      4 C          -2.3537   -0.4743    4.0689 C.3     1  UNL1       -0.0201
      5 C          -2.2519   -1.2905    5.3562 C.3     1  UNL1       -0.0463
      6 C          -3.5510   -1.2164    6.1520 C.3     1  UNL1       -0.0525
      7 C          -3.8773    0.2343    6.4871 C.3     1  UNL1       -0.0530
      8 C          -3.9875    1.0523    5.2055 C.3     1  UNL1       -0.0525
      9 C          -2.6850    0.9797    4.4125 C.3     1  UNL1       -0.0463
     10 C          -0.8177   -2.2275    2.2057 C.3     1  UNL1       -0.0201
     11 C          -2.1751   -2.6391    1.6409 C.3     1  UNL1       -0.0463
     12 C          -2.0108   -3.8909    0.7802 C.3     1  UNL1       -0.0525
     13 C          -1.4164   -5.0296    1.6038 C.3     1  UNL1       -0.0530
     14 C          -0.0738   -4.6113    2.1970 C.3     1  UNL1       -0.0525
     15 C          -0.2363   -3.3588    3.0537 C.3     1  UNL1       -0.0463
     16 C          -1.1575    0.5502    1.6945 C.3     1  UNL1       -0.0026
     17 C          -0.6674    1.9249    2.0191 C.3     1  UNL1        0.1022
     18 C          -1.2115    3.0335    1.3804 C.2     1  UNL1       -0.0563
     19 C          -0.7092    4.2917    1.6559 C.2     1  UNL1       -0.0620
     20 C           0.3193    4.4049    2.5741 C.2     1  UNL1       -0.0431
     21 C           0.8074    3.2619    3.1952 C.2     1  UNL1        0.0306
     22 C           1.8829    3.3555    4.2262 C.3     1  UNL1        0.0080
     23 C           3.7308    1.8636    5.8488 C.3     1  UNL1       -0.0199
     24 C           4.2323    3.2018    6.3882 C.3     1  UNL1       -0.0463
     25 C           4.6200    3.0223    7.8566 C.3     1  UNL1       -0.0525
     26 C           5.6945    1.9495    8.0097 C.3     1  UNL1       -0.0530
     27 C           5.2210    0.6240    7.4191 C.3     1  UNL1       -0.0525
     28 C           4.8330    0.8115    5.9554 C.3     1  UNL1       -0.0463
     29 C           4.1380    2.2340    2.8158 C.3     1  UNL1       -0.0199
     30 C           5.0432    3.4479    3.0003 C.3     1  UNL1       -0.0463
     31 C           5.7801    3.7251    1.6901 C.3     1  UNL1       -0.0525
     32 C           6.6101    2.5133    1.2740 C.3     1  UNL1       -0.0530
     33 C           5.7311    1.2712    1.1520 C.3     1  UNL1       -0.0525
     34 C           4.9886    1.0142    2.4596 C.3     1  UNL1       -0.0463
     35 H          -3.1527   -0.8784    3.4313 H       1  UNL1        0.0349
     36 H          -2.0186   -2.3327    5.1273 H       1  UNL1        0.0271
     37 H          -1.4382   -0.8804    5.9583 H       1  UNL1        0.0271
     38 H          -3.4523   -1.7998    7.0696 H       1  UNL1        0.0265
     39 H          -4.3673   -1.6493    5.5659 H       1  UNL1        0.0265
     40 H          -3.0787    0.6467    7.1065 H       1  UNL1        0.0265
     41 H          -4.8113    0.2910    7.0506 H       1  UNL1        0.0265
     42 H          -4.2098    2.0945    5.4450 H       1  UNL1        0.0265
     43 H          -4.8101    0.6663    4.5957 H       1  UNL1        0.0265
     44 H          -1.8760    1.3975    5.0163 H       1  UNL1        0.0271
     45 H          -2.7855    1.5831    3.5061 H       1  UNL1        0.0271
     46 H          -0.1185   -2.0575    1.3722 H       1  UNL1        0.0349
     47 H          -2.6064   -1.8353    1.0394 H       1  UNL1        0.0271
     48 H          -2.8636   -2.8658    2.4580 H       1  UNL1        0.0271
     49 H          -1.3497   -3.6681   -0.0602 H       1  UNL1        0.0265
     50 H          -2.9802   -4.1899    0.3749 H       1  UNL1        0.0265
     51 H          -1.2884   -5.9138    0.9759 H       1  UNL1        0.0265
     52 H          -2.1051   -5.2907    2.4111 H       1  UNL1        0.0265
     53 H           0.3375   -5.4232    2.8005 H       1  UNL1        0.0265
     54 H           0.6267   -4.4043    1.3855 H       1  UNL1        0.0265
     55 H           0.7283   -3.0436    3.4605 H       1  UNL1        0.0271
     56 H          -0.9000   -3.5861    3.8905 H       1  UNL1        0.0271
     57 H          -0.5810    0.1764    0.8387 H       1  UNL1        0.0339
     58 H          -2.2183    0.5608    1.4284 H       1  UNL1        0.0339
     59 H          -2.0109    2.8983    0.6685 H       1  UNL1        0.0595
     60 H          -1.1087    5.1655    1.1642 H       1  UNL1        0.0616
     61 H           0.7414    5.3672    2.8185 H       1  UNL1        0.0633
     62 H           2.4522    4.2814    4.1198 H       1  UNL1        0.0374
     63 H           1.4111    3.3306    5.2180 H       1  UNL1        0.0374
     64 H           2.8978    1.5337    6.4898 H       1  UNL1        0.0349
     65 H           5.1051    3.5401    5.8281 H       1  UNL1        0.0271
     66 H           3.4614    3.9704    6.3145 H       1  UNL1        0.0271
     67 H           4.9821    3.9710    8.2601 H       1  UNL1        0.0265
     68 H           3.7352    2.7302    8.4260 H       1  UNL1        0.0265
     69 H           6.6031    2.2716    7.4938 H       1  UNL1        0.0265
     70 H           5.9399    1.8211    9.0658 H       1  UNL1        0.0265
     71 H           6.0135   -0.1229    7.5027 H       1  UNL1        0.0265
     72 H           4.3560    0.2582    7.9760 H       1  UNL1        0.0265
     73 H           5.7131    1.1372    5.3959 H       1  UNL1        0.0271
     74 H           4.4774   -0.1300    5.5304 H       1  UNL1        0.0271
     75 H           3.4652    2.4247    1.9625 H       1  UNL1        0.0349
     76 H           5.7787    3.2426    3.7803 H       1  UNL1        0.0271
     77 H           4.4736    4.3327    3.2939 H       1  UNL1        0.0271
     78 H           5.0523    3.9518    0.9072 H       1  UNL1        0.0265
     79 H           6.4277    4.5974    1.8080 H       1  UNL1        0.0265
     80 H           7.3859    2.3348    2.0232 H       1  UNL1        0.0265
     81 H           7.1068    2.7150    0.3227 H       1  UNL1        0.0265
     82 H           5.0031    1.4092    0.3503 H       1  UNL1        0.0265
     83 H           6.3449    0.4046    0.8986 H       1  UNL1        0.0265
     84 H           5.7131    0.8229    3.2529 H       1  UNL1        0.0271
     85 H           4.3478    0.1350    2.3616 H       1  UNL1        0.0271
@<TRIPOS>BOND
     1    49    12    1
     2    81    32    1
     3    82    33    1
     4    50    12    1
     5    59    18    1
     6    12    13    1
     7    12    11    1
     8    57    16    1
     9    83    33    1
    10    78    31    1
    11    51    13    1
    12    47    11    1
    13    33    32    1
    14    33    34    1
    15    60    19    1
    16    32    31    1
    17    32    80    1
    18    46    10    1
    19    18    19    2
    20    18    17    1
    21    54    14    1
    22    58    16    1
    23    13    14    1
    24    13    52    1
    25    11    10    1
    26    11    48    1
    27    19    20    1
    28    31    79    1
    29    31    30    1
    30    16    17    1
    31    16     1    1
    32    75    29    1
    33    17     3    1
    34    14    53    1
    35    14    15    1
    36    10    15    1
    37    10     1    1
    38    85    34    1
    39    34    29    1
    40    34    84    1
    41    20    61    1
    42    20    21    2
    43    29    30    1
    44    29     2    1
    45     3    21    1
    46    30    77    1
    47    30    76    1
    48    15    55    1
    49    15    56    1
    50     1     4    1
    51    21    22    1
    52    35     4    1
    53    45     9    1
    54     4     9    1
    55     4     5    1
    56    62    22    1
    57     2    22    1
    58     2    23    1
    59    22    63    1
    60     9    44    1
    61     9     8    1
    62    43     8    1
    63    36     5    1
    64     8    42    1
    65     8     7    1
    66     5    37    1
    67     5     6    1
    68    73    28    1
    69    74    28    1
    70    39     6    1
    71    65    24    1
    72    23    28    1
    73    23    24    1
    74    23    64    1
    75    28    27    1
    76     6     7    1
    77     6    38    1
    78    66    24    1
    79    24    25    1
    80     7    41    1
    81     7    40    1
    82    27    71    1
    83    27    72    1
    84    27    26    1
    85    69    26    1
    86    25    26    1
    87    25    67    1
    88    25    68    1
    89    26    70    1
