@<TRIPOS>MOLECULE
1,2,3
 91 93 0 0 0
SMALL
GASTEIGER

@<TRIPOS>ATOM
      1 P           5.4945   10.0083    5.5501 P.3     1  UNL1       -0.0961
      2 P           3.9583    9.3617    2.2085 P.3     1  UNL1       -0.0961
      3 N           3.0477    8.4739    4.8685 N.ar    1  UNL1       -0.2461
      4 C           1.7948    8.4241    4.3353 C.ar    1  UNL1        0.0758
      5 C           1.4184    8.4223    2.9894 C.ar    1  UNL1       -0.0169
      6 C           0.0675    8.4016    2.7048 C.ar    1  UNL1       -0.0525
      7 H          -0.2239    8.4067    1.6633 H       1  UNL1        0.0624
      8 C          -0.9326    8.3543    3.6885 C.ar    1  UNL1       -0.0410
      9 C          -0.5501    8.3058    5.0168 C.ar    1  UNL1       -0.0482
     10 H          -1.2731    8.2411    5.8135 H       1  UNL1        0.0627
     11 C           0.7987    8.3427    5.3439 C.ar    1  UNL1        0.0101
     12 C           1.5156    8.3221    6.5822 C.ar    1  UNL1        0.0101
     13 C           1.1374    8.2682    7.9140 C.ar    1  UNL1       -0.0482
     14 H           0.0874    8.2006    8.1566 H       1  UNL1        0.0627
     15 C           2.1010    8.3098    8.9112 C.ar    1  UNL1       -0.0410
     16 C           3.4446    8.4336    8.5378 C.ar    1  UNL1       -0.0525
     17 H           4.2055    8.4865    9.3020 H       1  UNL1        0.0624
     18 C           3.8627    8.5015    7.2193 C.ar    1  UNL1       -0.0169
     19 C           2.8879    8.4174    6.2225 C.ar    1  UNL1        0.0758
     20 C           5.3118    8.7074    6.8786 C.3     1  UNL1       -0.0045
     21 H           5.7435    7.7878    6.4545 H       1  UNL1        0.0362
     22 H           5.8779    8.9720    7.7746 H       1  UNL1        0.0362
     23 C           2.4389    8.3442    1.8915 C.3     1  UNL1       -0.0045
     24 H           1.9898    8.6110    0.9301 H       1  UNL1        0.0362
     25 H           2.7862    7.3048    1.8175 H       1  UNL1        0.0362
     26 C          -2.3893    8.3374    3.2468 C.3     1  UNL1       -0.0126
     27 C          -2.6871    9.6055    2.4340 C.3     1  UNL1       -0.0560
     28 H          -2.4911   10.4903    3.0363 H       1  UNL1        0.0238
     29 H          -3.7311    9.6201    2.1265 H       1  UNL1        0.0238
     30 H          -2.0695    9.6587    1.5416 H       1  UNL1        0.0238
     31 C          -2.6441    7.0948    2.3815 C.3     1  UNL1       -0.0560
     32 H          -2.0289    7.1023    1.4858 H       1  UNL1        0.0238
     33 H          -3.6883    7.0544    2.0768 H       1  UNL1        0.0238
     34 H          -2.4128    6.1930    2.9448 H       1  UNL1        0.0238
     35 C          -3.3607    8.2961    4.4296 C.3     1  UNL1       -0.0560
     36 H          -3.2180    7.3941    5.0203 H       1  UNL1        0.0238
     37 H          -4.3849    8.2976    4.0605 H       1  UNL1        0.0238
     38 H          -3.2318    9.1654    5.0703 H       1  UNL1        0.0238
     39 C           1.6637    8.2504   10.3687 C.3     1  UNL1       -0.0126
     40 C           0.7590    9.4548   10.6677 C.3     1  UNL1       -0.0560
     41 H           1.2976   10.3834   10.4878 H       1  UNL1        0.0238
     42 H           0.4374    9.4374   11.7074 H       1  UNL1        0.0238
     43 H          -0.1255    9.4487   10.0368 H       1  UNL1        0.0238
     44 C           0.8873    6.9480   10.6096 C.3     1  UNL1       -0.0560
     45 H           0.0040    6.8929    9.9797 H       1  UNL1        0.0238
     46 H           0.5697    6.8838   11.6488 H       1  UNL1        0.0238
     47 H           1.5174    6.0892   10.3867 H       1  UNL1        0.0238
     48 C           2.8380    8.2866   11.3512 C.3     1  UNL1       -0.0560
     49 H           3.5096    7.4462   11.1900 H       1  UNL1        0.0238
     50 H           2.4595    8.2230   12.3698 H       1  UNL1        0.0238
     51 H           3.3982    9.2149   11.2611 H       1  UNL1        0.0238
     52 C           4.6254   11.4903    6.3343 C.3     1  UNL1       -0.0256
     53 H           5.0951   12.3478    5.8310 H       1  UNL1        0.0344
     54 C           3.1282   11.5298    6.0408 C.3     1  UNL1       -0.0587
     55 H           2.9180   11.1547    5.0446 H       1  UNL1        0.0236
     56 H           2.7559   12.5503    6.1190 H       1  UNL1        0.0236
     57 H           2.5803   10.9165    6.7504 H       1  UNL1        0.0236
     58 C           4.8474   11.6306    7.8399 C.3     1  UNL1       -0.0587
     59 H           4.2926   10.8650    8.3754 H       1  UNL1        0.0236
     60 H           4.4779   12.6022    8.1656 H       1  UNL1        0.0236
     61 H           5.8965   11.5625    8.1199 H       1  UNL1        0.0236
     62 C           7.2555   10.6440    5.7997 C.3     1  UNL1       -0.0256
     63 H           7.2189   11.4246    6.5678 H       1  UNL1        0.0344
     64 C           7.6965   11.3029    4.4936 C.3     1  UNL1       -0.0587
     65 H           7.6494   10.5948    3.6715 H       1  UNL1        0.0236
     66 H           8.7162   11.6757    4.5782 H       1  UNL1        0.0236
     67 H           7.0480   12.1429    4.2518 H       1  UNL1        0.0236
     68 C           8.2566    9.5889    6.2617 C.3     1  UNL1       -0.0587
     69 H           8.0477    9.2648    7.2786 H       1  UNL1        0.0236
     70 H           9.2611   10.0113    6.2498 H       1  UNL1        0.0236
     71 H           8.2508    8.7150    5.6176 H       1  UNL1        0.0236
     72 C           3.1672   11.0620    2.2780 C.3     1  UNL1       -0.0256
     73 H           2.4039   10.9187    3.0550 H       1  UNL1        0.0344
     74 C           4.1744   12.0970    2.7693 C.3     1  UNL1       -0.0587
     75 H           4.8220   11.6433    3.5200 H       1  UNL1        0.0236
     76 H           3.6662   12.9542    3.2069 H       1  UNL1        0.0236
     77 H           4.7952   12.4568    1.9529 H       1  UNL1        0.0236
     78 C           2.4574   11.5482    1.0184 C.3     1  UNL1       -0.0587
     79 H           3.1640   11.7665    0.2210 H       1  UNL1        0.0236
     80 H           1.9201   12.4679    1.2467 H       1  UNL1        0.0236
     81 H           1.7316   10.8221    0.6618 H       1  UNL1        0.0236
     82 C           4.6728    9.2973    0.4716 C.3     1  UNL1       -0.0256
     83 H           3.9141    9.6971   -0.2112 H       1  UNL1        0.0344
     84 C           5.9275   10.1595    0.3725 C.3     1  UNL1       -0.0587
     85 H           5.6838   11.2136    0.4674 H       1  UNL1        0.0236
     86 H           6.4141   10.0122   -0.5910 H       1  UNL1        0.0236
     87 H           6.6318    9.9042    1.1589 H       1  UNL1        0.0236
     88 C           4.9625    7.8532    0.0648 C.3     1  UNL1       -0.0587
     89 H           5.5272    7.3371    0.8369 H       1  UNL1        0.0236
     90 H           5.5449    7.8353   -0.8558 H       1  UNL1        0.0236
     91 H           4.0423    7.3024   -0.1158 H       1  UNL1        0.0236
@<TRIPOS>BOND
     1    90    88    1
     2    86    84    1
     3    83    82    1
     4    91    88    1
     5    88    82    1
     6    88    89    1
     7    79    78    1
     8    84    85    1
     9    84    82    1
    10    84    87    1
    11    82     2    1
    12    81    78    1
    13    24    23    1
    14    78    80    1
    15    78    72    1
    16    32    31    1
    17    30    27    1
    18     7     6    1
    19    25    23    1
    20    23     2    1
    21    23     5    1
    22    77    74    1
    23    33    31    1
    24    29    27    1
    25     2    72    1
    26    72    74    1
    27    72    73    1
    28    31    34    1
    29    31    26    1
    30    27    28    1
    31    27    26    1
    32     6     5   ar
    33     6     8   ar
    34    74    76    1
    35    74    75    1
    36     5     4   ar
    37    26     8    1
    38    26    35    1
    39    65    64    1
    40     8     9   ar
    41    37    35    1
    42    67    64    1
    43     4     3   ar
    44     4    11   ar
    45    35    36    1
    46    35    38    1
    47    64    66    1
    48    64    62    1
    49     3    19   ar
    50     9    11   ar
    51     9    10    1
    52    55    54    1
    53    11    12   ar
    54     1    62    1
    55     1    52    1
    56     1    20    1
    57    71    68    1
    58    62    68    1
    59    62    63    1
    60    53    52    1
    61    54    56    1
    62    54    52    1
    63    54    57    1
    64    19    12   ar
    65    19    18   ar
    66    70    68    1
    67    68    69    1
    68    52    58    1
    69    21    20    1
    70    12    13   ar
    71    20    18    1
    72    20    22    1
    73    18    16   ar
    74    58    61    1
    75    58    60    1
    76    58    59    1
    77    13    14    1
    78    13    15   ar
    79    16    15   ar
    80    16    17    1
    81    15    39    1
    82    45    44    1
    83    43    40    1
    84    39    44    1
    85    39    40    1
    86    39    48    1
    87    47    44    1
    88    41    40    1
    89    44    46    1
    90    40    42    1
    91    49    48    1
    92    51    48    1
    93    48    50    1
