@<TRIPOS>MOLECULE
1,2,5
 65 65 0 0 0
SMALL
GASTEIGER

@<TRIPOS>ATOM
      1 P           9.4487    3.1433   12.2390 P.3     1  UNL1        0.0451
      2 P           7.7430   -0.0535    9.5845 P.3     1  UNL1        0.1016
      3 O          10.8379    3.2213   11.3239 O.3     1  UNL1       -0.3225
      4 O           9.2850   -0.5195    9.1516 O.2     1  UNL1       -0.4568
      5 N          10.0663    1.3596   10.2211 N.pl3   1  UNL1       -0.1744
      6 C          11.5233    0.1244    8.7774 C.2     1  UNL1       -0.0028
      7 H          11.6449   -0.7201    8.1203 H       1  UNL1        0.0668
      8 C          11.0734    2.2122   10.4699 C.3     1  UNL1        0.2292
      9 C          12.3269    2.0783    9.8945 C.2     1  UNL1       -0.0274
     10 H          13.0913    2.7991   10.1304 H       1  UNL1        0.0619
     11 C          10.2946    0.3374    9.3817 C.2     1  UNL1        0.2051
     12 C          12.5544    1.0151    9.0339 C.2     1  UNL1       -0.0564
     13 H          13.5190    0.8819    8.5727 H       1  UNL1        0.0617
     14 C          10.1217    2.1346   13.7076 C.3     1  UNL1        0.0073
     15 C           8.1466    5.2757   13.4432 C.3     1  UNL1       -0.0541
     16 H           7.2593    4.8233   13.0047 H       1  UNL1        0.0239
     17 H           8.2608    4.8961   14.4539 H       1  UNL1        0.0239
     18 H           7.9859    6.3514   13.5015 H       1  UNL1        0.0239
     19 C           7.0831    0.3191    7.8483 C.3     1  UNL1        0.0183
     20 C           7.1799   -1.7658   10.1639 C.3     1  UNL1        0.0183
     21 C           9.3688    4.9827   12.5790 C.3     1  UNL1        0.0073
     22 C           7.0099   -0.8834    6.9129 C.3     1  UNL1       -0.0531
     23 H           7.9667   -1.4010    6.8784 H       1  UNL1        0.0239
     24 H           6.2323   -1.5808    7.2106 H       1  UNL1        0.0239
     25 H           6.7769   -0.5381    5.9057 H       1  UNL1        0.0239
     26 C           9.4354    2.5121   15.0154 C.3     1  UNL1       -0.0541
     27 H           9.7529    3.4946   15.3554 H       1  UNL1        0.0239
     28 H           8.3536    2.5009   14.9018 H       1  UNL1        0.0239
     29 H           9.7016    1.7918   15.7895 H       1  UNL1        0.0239
     30 C           7.6103   -1.7801   11.6348 C.3     1  UNL1       -0.0531
     31 H           8.6944   -1.6739   11.7176 H       1  UNL1        0.0239
     32 H           7.1180   -0.9711   12.1813 H       1  UNL1        0.0239
     33 H           7.3320   -2.7216   12.1068 H       1  UNL1        0.0239
     34 C           9.7100    0.7027   13.3145 C.3     1  UNL1       -0.0541
     35 H           8.6667    0.6975   12.9281 H       1  UNL1        0.0239
     36 H          10.4002    0.2864   12.5729 H       1  UNL1        0.0239
     37 H           9.7284    0.0434   14.1834 H       1  UNL1        0.0239
     38 C           5.6612   -1.8732   10.0935 C.3     1  UNL1       -0.0531
     39 H           5.1952   -0.9804   10.5054 H       1  UNL1        0.0239
     40 H           5.3145   -2.0107    9.0728 H       1  UNL1        0.0239
     41 H           5.3238   -2.7296   10.6767 H       1  UNL1        0.0239
     42 C          11.6386    2.2026   13.8827 C.3     1  UNL1       -0.0541
     43 H          12.1687    1.8862   12.9849 H       1  UNL1        0.0239
     44 H          11.9620    3.2096   14.1314 H       1  UNL1        0.0239
     45 H          11.9344    1.5397   14.6962 H       1  UNL1        0.0239
     46 C           7.8398   -2.9434    9.4494 C.3     1  UNL1       -0.0531
     47 H           7.5077   -3.0322    8.4209 H       1  UNL1        0.0239
     48 H           8.9234   -2.8532    9.4576 H       1  UNL1        0.0239
     49 H           7.5724   -3.8636    9.9686 H       1  UNL1        0.0239
     50 C          10.6413    5.5411   13.2082 C.3     1  UNL1       -0.0541
     51 H          10.7526    5.2102   14.2380 H       1  UNL1        0.0239
     52 H          11.5183    5.2396   12.6392 H       1  UNL1        0.0239
     53 H          10.5940    6.6295   13.2104 H       1  UNL1        0.0239
     54 C           8.0507    1.3429    7.2454 C.3     1  UNL1       -0.0531
     55 H           8.2363    2.1533    7.9549 H       1  UNL1        0.0239
     56 H           9.0012    0.8817    6.9802 H       1  UNL1        0.0239
     57 H           7.6196    1.7730    6.3430 H       1  UNL1        0.0239
     58 C           5.7187    0.9765    8.0268 C.3     1  UNL1       -0.0531
     59 H           4.9926    0.2887    8.4512 H       1  UNL1        0.0239
     60 H           5.8180    1.8271    8.7009 H       1  UNL1        0.0239
     61 H           5.3407    1.3274    7.0677 H       1  UNL1        0.0239
     62 C           9.1492    5.5918   11.1910 C.3     1  UNL1       -0.0541
     63 H          10.0485    5.5119   10.5831 H       1  UNL1        0.0239
     64 H           8.3359    5.0684   10.6846 H       1  UNL1        0.0239
     65 H           8.8811    6.6431   11.2779 H       1  UNL1        0.0239
@<TRIPOS>BOND
     1    25    22    1
     2    57    54    1
     3    23    22    1
     4    22    24    1
     5    22    19    1
     6    56    54    1
     7    61    58    1
     8    54    19    1
     9    54    55    1
    10    19    58    1
    11    19     2    1
    12    58    59    1
    13    58    60    1
    14     7     6    1
    15    47    46    1
    16    13    12    1
    17     6    12    1
    18     6    11    2
    19    12     9    2
    20    40    38    1
    21     4    11    1
    22     4     2    1
    23    11     5    1
    24    46    48    1
    25    46    49    1
    26    46    20    1
    27     2    20    1
    28     9    10    1
    29     9     8    1
    30    38    20    1
    31    38    39    1
    32    38    41    1
    33    20    30    1
    34     5     8    1
    35     8     3    1
    36    63    62    1
    37    64    62    1
    38    62    65    1
    39    62    21    1
    40     3     1    1
    41    30    31    1
    42    30    33    1
    43    30    32    1
    44     1    21    1
    45     1    14    1
    46    36    34    1
    47    21    50    1
    48    21    15    1
    49    52    50    1
    50    35    34    1
    51    43    42    1
    52    16    15    1
    53    50    53    1
    54    50    51    1
    55    34    14    1
    56    34    37    1
    57    15    18    1
    58    15    17    1
    59    14    42    1
    60    14    26    1
    61    42    44    1
    62    42    45    1
    63    28    26    1
    64    26    27    1
    65    26    29    1
