@<TRIPOS>MOLECULE
1,2,5
 65 65 0 0 0
SMALL
GASTEIGER

@<TRIPOS>ATOM
      1 P           0.4891   16.2868   14.5464 P.3     1  UNL1        0.0451
      2 P           4.7446   14.8269   14.5723 P.3     1  UNL1        0.1016
      3 O           0.8777   17.4180   15.7115 O.3     1  UNL1       -0.3225
      4 O           5.0275   15.4942   16.0697 O.2     1  UNL1       -0.4568
      5 N           2.9501   16.4564   15.8992 N.pl3   1  UNL1       -0.1744
      6 C           2.0320   17.3058   16.3811 C.3     1  UNL1        0.2292
      7 C           4.1131   16.3473   16.5594 C.2     1  UNL1        0.2051
      8 C          -0.2868   17.5761   13.3740 C.3     1  UNL1        0.0073
      9 C           4.4022   17.0770   17.7005 C.2     1  UNL1       -0.0028
     10 C          -0.8118   18.8375   14.0599 C.3     1  UNL1       -0.0541
     11 C          -0.8713   15.4086   15.5424 C.3     1  UNL1        0.0073
     12 C           5.6216   16.1441   13.5090 C.3     1  UNL1        0.0183
     13 C           2.2436   18.0820   17.5103 C.2     1  UNL1       -0.0274
     14 C           3.4493   17.9617   18.1836 C.2     1  UNL1       -0.0564
     15 C          -2.0574   16.2869   15.9308 C.3     1  UNL1       -0.0541
     16 C           0.9023   17.9685   12.4906 C.3     1  UNL1       -0.0541
     17 C           5.7938   13.3070   14.9006 C.3     1  UNL1        0.0183
     18 C           6.6838   16.9662   14.2372 C.3     1  UNL1       -0.0531
     19 C          -1.3194   14.1947   14.7356 C.3     1  UNL1       -0.0541
     20 C           6.2188   15.5319   12.2482 C.3     1  UNL1       -0.0531
     21 C          -0.2008   14.9253   16.8326 C.3     1  UNL1       -0.0541
     22 C           4.4387   17.0567   13.1257 C.3     1  UNL1       -0.0531
     23 C           7.2389   13.6266   15.2677 C.3     1  UNL1       -0.0531
     24 C          -1.3848   16.9760   12.5022 C.3     1  UNL1       -0.0541
     25 C           5.7148   12.3889   13.6868 C.3     1  UNL1       -0.0531
     26 C           5.0829   12.6264   16.0745 C.3     1  UNL1       -0.0531
     27 H           5.3552   16.9402   18.1830 H       1  UNL1        0.0668
     28 H           3.6433   18.5458   19.0680 H       1  UNL1        0.0617
     29 H           1.4668   18.7516   17.8390 H       1  UNL1        0.0619
     30 H          -1.6575   18.6273   14.7051 H       1  UNL1        0.0239
     31 H          -0.0390   19.3225   14.6509 H       1  UNL1        0.0239
     32 H          -1.1397   19.5396   13.2931 H       1  UNL1        0.0239
     33 H          -1.7177   17.1866   16.4400 H       1  UNL1        0.0239
     34 H          -2.6594   16.5648   15.0709 H       1  UNL1        0.0239
     35 H          -2.6984   15.7339   16.6175 H       1  UNL1        0.0239
     36 H           1.6968   18.4102   13.0965 H       1  UNL1        0.0239
     37 H           1.2931   17.0902   11.9726 H       1  UNL1        0.0239
     38 H           0.6053   18.7044   11.7437 H       1  UNL1        0.0239
     39 H           6.2880   17.4395   15.1350 H       1  UNL1        0.0239
     40 H           7.5310   16.3494   14.5236 H       1  UNL1        0.0239
     41 H           7.0449   17.7534   13.5746 H       1  UNL1        0.0239
     42 H          -1.8536   14.4929   13.8373 H       1  UNL1        0.0239
     43 H          -0.4470   13.6073   14.4487 H       1  UNL1        0.0239
     44 H          -1.9823   13.5699   15.3326 H       1  UNL1        0.0239
     45 H           7.1079   14.9504   12.4792 H       1  UNL1        0.0239
     46 H           5.4957   14.8895   11.7523 H       1  UNL1        0.0239
     47 H           6.5087   16.3188   11.5511 H       1  UNL1        0.0239
     48 H           0.7315   14.4038   16.6047 H       1  UNL1        0.0239
     49 H           0.0165   15.7571   17.5014 H       1  UNL1        0.0239
     50 H          -0.8596   14.2340   17.3554 H       1  UNL1        0.0239
     51 H           3.5457   16.4460   12.8533 H       1  UNL1        0.0239
     52 H           4.1996   17.7420   13.9457 H       1  UNL1        0.0239
     53 H           4.6864   17.6646   12.2537 H       1  UNL1        0.0239
     54 H           7.7938   13.9961   14.4086 H       1  UNL1        0.0239
     55 H           7.2793   14.3665   16.0643 H       1  UNL1        0.0239
     56 H           7.7313   12.7205   15.6193 H       1  UNL1        0.0239
     57 H          -1.0801   16.0179   12.0935 H       1  UNL1        0.0239
     58 H          -2.3067   16.8391   13.0605 H       1  UNL1        0.0239
     59 H          -1.5993   17.6481   11.6709 H       1  UNL1        0.0239
     60 H           4.6713   12.1907   13.4463 H       1  UNL1        0.0239
     61 H           6.1980   12.8270   12.8181 H       1  UNL1        0.0239
     62 H           6.2038   11.4406   13.9065 H       1  UNL1        0.0239
     63 H           5.2445   13.1731   17.0014 H       1  UNL1        0.0239
     64 H           4.0103   12.5807   15.8765 H       1  UNL1        0.0239
     65 H           5.4534   11.6110   16.2021 H       1  UNL1        0.0239
@<TRIPOS>BOND
     1    47    20    1
     2    59    24    1
     3    38    16    1
     4    46    20    1
     5    37    16    1
     6    57    24    1
     7    20    45    1
     8    20    12    1
     9    53    22    1
    10    16    36    1
    11    16     8    1
    12    24    58    1
    13    24     8    1
    14    61    25    1
    15    51    22    1
    16    22    12    1
    17    22    52    1
    18    32    10    1
    19     8    10    1
    20     8     1    1
    21    60    25    1
    22    12    18    1
    23    12     2    1
    24    41    18    1
    25    25    62    1
    26    25    17    1
    27    42    19    1
    28    10    31    1
    29    10    30    1
    30    18    40    1
    31    18    39    1
    32    54    23    1
    33    43    19    1
    34     1    11    1
    35     1     3    1
    36     2    17    1
    37     2     4    1
    38    19    44    1
    39    19    11    1
    40    17    23    1
    41    17    26    1
    42    34    15    1
    43    23    56    1
    44    23    55    1
    45    11    15    1
    46    11    21    1
    47     3     6    1
    48    64    26    1
    49     5     6    1
    50     5     7    1
    51    15    33    1
    52    15    35    1
    53     4     7    1
    54    26    65    1
    55    26    63    1
    56     6    13    1
    57     7     9    2
    58    48    21    1
    59    21    50    1
    60    21    49    1
    61    13    29    1
    62    13    14    2
    63     9    27    1
    64     9    14    1
    65    14    28    1
