@<TRIPOS>MOLECULE
1,2,5
 43 42 0 0 0
SMALL
GASTEIGER

@<TRIPOS>ATOM
      1 P           1.4348    7.9198    8.3976 P.3     1  UNL1        0.0000
      2 P           3.9768    9.8126    5.6994 P.3     1  UNL1        0.0000
      3 SI          2.3520    5.4478    6.8023 Si      1  UNL1        0.0000
      4 SI          3.6304    7.0033    4.5119 Si      1  UNL1        0.0000
      5 N           3.0258    6.8785    6.1182 N.3     1  UNL1        0.0000
      6 C           1.2711    6.0989    8.2714 C.3     1  UNL1        0.0000
      7 C           4.5721    8.6808    4.3923 C.3     1  UNL1        0.0000
      8 C           0.6755    8.2498   10.0387 C.3     1  UNL1        0.0000
      9 C           0.0936    8.4522    7.2526 C.3     1  UNL1        0.0000
     10 C           5.3559   11.0178    5.8193 C.3     1  UNL1        0.0000
     11 C           2.7197   10.7992    4.7813 C.3     1  UNL1        0.0000
     12 C           1.1817    4.5030    5.6353 C.3     1  UNL1        0.0000
     13 C           3.7610    4.2874    7.3771 C.3     1  UNL1        0.0000
     14 C           2.1991    7.0813    3.2461 C.3     1  UNL1        0.0000
     15 C           4.8486    5.6207    4.0203 C.3     1  UNL1        0.0000
     16 H           1.6314    5.6732    9.2075 H       1  UNL1        0.0000
     17 H           0.2157    5.8421    8.1663 H       1  UNL1        0.0000
     18 H           4.4792    9.1531    3.4143 H       1  UNL1        0.0000
     19 H           5.6291    8.4965    4.5841 H       1  UNL1        0.0000
     20 H           0.5490    9.3226   10.1732 H       1  UNL1        0.0000
     21 H          -0.2890    7.7494   10.1235 H       1  UNL1        0.0000
     22 H           1.3526    7.8796   10.8074 H       1  UNL1        0.0000
     23 H           0.0086    9.5378    7.2606 H       1  UNL1        0.0000
     24 H           0.3527    8.1197    6.2487 H       1  UNL1        0.0000
     25 H          -0.8596    8.0149    7.5481 H       1  UNL1        0.0000
     26 H           6.2200   10.5089    6.2481 H       1  UNL1        0.0000
     27 H           5.6074   11.4125    4.8341 H       1  UNL1        0.0000
     28 H           5.0715   11.8298    6.4870 H       1  UNL1        0.0000
     29 H           2.3337   11.5845    5.4289 H       1  UNL1        0.0000
     30 H           3.1679   11.2485    3.8960 H       1  UNL1        0.0000
     31 H           1.9004   10.1491    4.4829 H       1  UNL1        0.0000
     32 H           0.3844    5.1307    5.2556 H       1  UNL1        0.0000
     33 H           1.7328    4.1182    4.7867 H       1  UNL1        0.0000
     34 H           0.7300    3.6601    6.1449 H       1  UNL1        0.0000
     35 H           3.5840    3.8654    8.3613 H       1  UNL1        0.0000
     36 H           3.8938    3.4625    6.6837 H       1  UNL1        0.0000
     37 H           4.7039    4.8347    7.4233 H       1  UNL1        0.0000
     38 H           1.4258    7.7881    3.5289 H       1  UNL1        0.0000
     39 H           2.5670    7.3663    2.2668 H       1  UNL1        0.0000
     40 H           1.7327    6.1091    3.1489 H       1  UNL1        0.0000
     41 H           4.3589    4.6538    4.0565 H       1  UNL1        0.0000
     42 H           5.2282    5.7608    3.0136 H       1  UNL1        0.0000
     43 H           5.6989    5.5884    4.6950 H       1  UNL1        0.0000
@<TRIPOS>BOND
     1    39    14    1
     2    42    15    1
     3    40    14    1
     4    14    38    1
     5    14     4    1
     6    18     7    1
     7    30    11    1
     8    15    41    1
     9    15     4    1
    10    15    43    1
    11     7     4    1
    12     7    19    1
    13     7     2    1
    14    31    11    1
    15     4     5    1
    16    11    29    1
    17    11     2    1
    18    33    12    1
    19    27    10    1
    20    32    12    1
    21    12    34    1
    22    12     3    1
    23     2    10    1
    24    10    26    1
    25    10    28    1
    26     5     3    1
    27    24     9    1
    28    36    13    1
    29     3    13    1
    30     3     6    1
    31     9    23    1
    32     9    25    1
    33     9     1    1
    34    13    37    1
    35    13    35    1
    36    17     6    1
    37     6     1    1
    38     6    16    1
    39     1     8    1
    40     8    21    1
    41     8    20    1
    42     8    22    1
