@<TRIPOS>MOLECULE
1,2,5
 67 66 0 0 0
SMALL
GASTEIGER

@<TRIPOS>ATOM
      1 P           3.7152    7.4159   12.2322 P.3     1  UNL1        0.0000
      2 P           7.5029   10.1339    9.8464 P.3     1  UNL1        0.0000
      3 SI          6.3523    5.8900   11.5881 Si      1  UNL1        0.0000
      4 SI          7.1831    7.1960    8.9764 Si      1  UNL1        0.0000
      5 N           6.3459    7.1943   10.4733 N.3     1  UNL1        0.0000
      6 C           4.9491    6.2335   12.8827 C.3     1  UNL1        0.0000
      7 C           7.5475    9.0112    8.4100 C.3     1  UNL1        0.0000
      8 C           2.5114    6.3695   11.2467 C.3     1  UNL1        0.0000
      9 C           2.7112    7.8984   13.7365 C.3     1  UNL1        0.0000
     10 C           9.2013    9.9236   10.6064 C.3     1  UNL1        0.0000
     11 C           7.5099   11.8833    9.1519 C.3     1  UNL1        0.0000
     12 C           7.9674    5.6952   12.5979 C.3     1  UNL1        0.0000
     13 C           6.0401    4.1788   10.7837 C.3     1  UNL1        0.0000
     14 C           8.8714    6.2962    9.0305 C.3     1  UNL1        0.0000
     15 C           6.1383    6.4314    7.5645 C.3     1  UNL1        0.0000
     16 C           2.9610    6.3835    9.7858 C.3     1  UNL1        0.0000
     17 C           2.3376    4.9468   11.7676 C.3     1  UNL1        0.0000
     18 C           3.6326    8.5361   14.7751 C.3     1  UNL1        0.0000
     19 C           1.6463    8.9078   13.3070 C.3     1  UNL1        0.0000
     20 C          10.3593    9.9689    9.6131 C.3     1  UNL1        0.0000
     21 C           9.3874   10.9603   11.7147 C.3     1  UNL1        0.0000
     22 C           6.9248   11.9631    7.7467 C.3     1  UNL1        0.0000
     23 C           6.6730   12.7263   10.1164 C.3     1  UNL1        0.0000
     24 H           5.4386    6.7386   13.7164 H       1  UNL1        0.0000
     25 H           4.4779    5.3308   13.2705 H       1  UNL1        0.0000
     26 H           6.7299    9.3061    7.7538 H       1  UNL1        0.0000
     27 H           8.4792    9.1086    7.8536 H       1  UNL1        0.0000
     28 H           1.5440    6.8823   11.3142 H       1  UNL1        0.0000
     29 H           2.2352    7.0024   14.1575 H       1  UNL1        0.0000
     30 H           9.1630    8.9272   11.0722 H       1  UNL1        0.0000
     31 H           8.5421   12.2539    9.1374 H       1  UNL1        0.0000
     32 H           7.8594    4.9420   13.3722 H       1  UNL1        0.0000
     33 H           8.7853    5.3868   11.9564 H       1  UNL1        0.0000
     34 H           8.2505    6.6264   13.0783 H       1  UNL1        0.0000
     35 H           5.1799    4.1518   10.1249 H       1  UNL1        0.0000
     36 H           6.9054    3.9070   10.1914 H       1  UNL1        0.0000
     37 H           5.9096    3.4098   11.5374 H       1  UNL1        0.0000
     38 H           8.7153    5.2406    9.2156 H       1  UNL1        0.0000
     39 H           9.3992    6.3859    8.0872 H       1  UNL1        0.0000
     40 H           9.5184    6.6732    9.8151 H       1  UNL1        0.0000
     41 H           5.1917    6.9519    7.4520 H       1  UNL1        0.0000
     42 H           6.6610    6.4854    6.6151 H       1  UNL1        0.0000
     43 H           5.9256    5.3863    7.7603 H       1  UNL1        0.0000
     44 H           3.9961    6.0525    9.6969 H       1  UNL1        0.0000
     45 H           2.3315    5.7268    9.1864 H       1  UNL1        0.0000
     46 H           2.8901    7.3910    9.3746 H       1  UNL1        0.0000
     47 H           2.0905    4.9402   12.8278 H       1  UNL1        0.0000
     48 H           1.5235    4.4599   11.2325 H       1  UNL1        0.0000
     49 H           3.2405    4.3633   11.6105 H       1  UNL1        0.0000
     50 H           4.3127    7.8099   15.2155 H       1  UNL1        0.0000
     51 H           4.2217    9.3360   14.3188 H       1  UNL1        0.0000
     52 H           3.0420    8.9707   15.5800 H       1  UNL1        0.0000
     53 H           1.0904    9.2601   14.1741 H       1  UNL1        0.0000
     54 H           2.1228    9.7684   12.8351 H       1  UNL1        0.0000
     55 H           0.9337    8.4759   12.6066 H       1  UNL1        0.0000
     56 H          10.3549    9.1032    8.9565 H       1  UNL1        0.0000
     57 H          10.3237   10.8709    9.0045 H       1  UNL1        0.0000
     58 H          11.3033    9.9697   10.1558 H       1  UNL1        0.0000
     59 H          10.2899   10.7437   12.2838 H       1  UNL1        0.0000
     60 H           9.4820   11.9632   11.3020 H       1  UNL1        0.0000
     61 H           8.5431   10.9354   12.4046 H       1  UNL1        0.0000
     62 H           6.8471   13.0061    7.4427 H       1  UNL1        0.0000
     63 H           7.5505   11.4462    7.0225 H       1  UNL1        0.0000
     64 H           5.9248   11.5308    7.7278 H       1  UNL1        0.0000
     65 H           7.0135   12.6102   11.1471 H       1  UNL1        0.0000
     66 H           6.7232   13.7821    9.8538 H       1  UNL1        0.0000
     67 H           5.6283   12.4108   10.0680 H       1  UNL1        0.0000
@<TRIPOS>BOND
     1    42    15    1
     2    63    22    1
     3    62    22    1
     4    41    15    1
     5    15    43    1
     6    15     4    1
     7    64    22    1
     8    22    11    1
     9    26     7    1
    10    27     7    1
    11    39    14    1
    12     7     4    1
    13     7     2    1
    14    56    20    1
    15     4    14    1
    16     4     5    1
    17    57    20    1
    18    14    38    1
    19    14    40    1
    20    31    11    1
    21    11     2    1
    22    11    23    1
    23    45    16    1
    24    46    16    1
    25    20    58    1
    26    20    10    1
    27    44    16    1
    28    16     8    1
    29     2    10    1
    30    66    23    1
    31    67    23    1
    32    23    65    1
    33    35    13    1
    34    36    13    1
    35     5     3    1
    36    10    30    1
    37    10    21    1
    38    13    37    1
    39    13     3    1
    40    48    17    1
    41     8    28    1
    42     8    17    1
    43     8     1    1
    44    60    21    1
    45     3    12    1
    46     3     6    1
    47    49    17    1
    48    21    59    1
    49    21    61    1
    50    17    47    1
    51    33    12    1
    52     1     6    1
    53     1     9    1
    54    12    34    1
    55    12    32    1
    56    55    19    1
    57    54    19    1
    58     6    25    1
    59     6    24    1
    60    19     9    1
    61    19    53    1
    62     9    29    1
    63     9    18    1
    64    51    18    1
    65    18    50    1
    66    18    52    1
