@<TRIPOS>MOLECULE
1,2,5
 71 74 0 0 0
SMALL
GASTEIGER

@<TRIPOS>ATOM
      1 P           2.3081    5.0822    4.8435 P.3     1  UNL1        0.0000
      2 P           1.2364    1.4223    2.3112 P.3     1  UNL1        0.0000
      3 SI          2.1611    6.0592    2.0558 Si      1  UNL1        0.0000
      4 SI          1.2803    3.7058    0.4366 Si      1  UNL1        0.0000
      5 N           1.7337    4.4007    1.9394 N.3     1  UNL1        0.0000
      6 C           3.1304    6.2337    3.7094 C.3     1  UNL1        0.0000
      7 C           0.3447    2.0826    0.8768 C.3     1  UNL1        0.0000
      8 C           0.6683    7.2549    2.1373 C.3     1  UNL1        0.0000
      9 C           3.3087    6.6857    0.6692 C.3     1  UNL1        0.0000
     10 C           2.7612    3.2287   -0.6792 C.3     1  UNL1        0.0000
     11 C           0.0948    4.7659   -0.6129 C.3     1  UNL1        0.0000
     12 C           0.8373    6.0237    5.3548 C.ar    1  UNL1        0.0000
     13 C          -0.4039    5.4137    5.2168 C.ar    1  UNL1        0.0000
     14 C          -1.5618    6.0985    5.5393 C.ar    1  UNL1        0.0000
     15 C          -1.4852    7.4008    6.0056 C.ar    1  UNL1        0.0000
     16 C          -0.2503    8.0122    6.1552 C.ar    1  UNL1        0.0000
     17 C           0.9072    7.3279    5.8326 C.ar    1  UNL1        0.0000
     18 C           3.3487    5.1198    6.3444 C.ar    1  UNL1        0.0000
     19 C           4.6839    4.7492    6.2074 C.ar    1  UNL1        0.0000
     20 C           5.5249    4.7278    7.3029 C.ar    1  UNL1        0.0000
     21 C           5.0359    5.0614    8.5562 C.ar    1  UNL1        0.0000
     22 C           3.7019    5.3993    8.7071 C.ar    1  UNL1        0.0000
     23 C           2.8590    5.4230    7.6094 C.ar    1  UNL1        0.0000
     24 C           2.6849    0.6194    1.5578 C.ar    1  UNL1        0.0000
     25 C           3.9321    0.9079    2.1005 C.ar    1  UNL1        0.0000
     26 C           5.0799    0.3697    1.5471 C.ar    1  UNL1        0.0000
     27 C           4.9884   -0.4650    0.4452 C.ar    1  UNL1        0.0000
     28 C           3.7482   -0.7640   -0.0962 C.ar    1  UNL1        0.0000
     29 C           2.6003   -0.2257    0.4565 C.ar    1  UNL1        0.0000
     30 C           0.1998    0.0139    2.8394 C.ar    1  UNL1        0.0000
     31 C          -1.0533    0.3372    3.3543 C.ar    1  UNL1        0.0000
     32 C          -1.9147   -0.6523    3.7848 C.ar    1  UNL1        0.0000
     33 C          -1.5257   -1.9816    3.7189 C.ar    1  UNL1        0.0000
     34 C          -0.2707   -2.3093    3.2359 C.ar    1  UNL1        0.0000
     35 C           0.5931   -1.3175    2.8021 C.ar    1  UNL1        0.0000
     36 H           3.1422    7.2471    4.1071 H       1  UNL1        0.0000
     37 H           4.1590    5.9021    3.5756 H       1  UNL1        0.0000
     38 H           0.3019    1.3629    0.0613 H       1  UNL1        0.0000
     39 H          -0.6737    2.3072    1.1922 H       1  UNL1        0.0000
     40 H           0.9598    8.2446    2.4770 H       1  UNL1        0.0000
     41 H           0.2245    7.3628    1.1535 H       1  UNL1        0.0000
     42 H          -0.1041    6.8921    2.8081 H       1  UNL1        0.0000
     43 H           3.6277    7.7093    0.8352 H       1  UNL1        0.0000
     44 H           4.1957    6.0706    0.5647 H       1  UNL1        0.0000
     45 H           2.7782    6.6560   -0.2754 H       1  UNL1        0.0000
     46 H           2.4722    2.5398   -1.4677 H       1  UNL1        0.0000
     47 H           3.1724    4.1146   -1.1511 H       1  UNL1        0.0000
     48 H           3.5581    2.7599   -0.1101 H       1  UNL1        0.0000
     49 H          -0.2346    4.2462   -1.5064 H       1  UNL1        0.0000
     50 H          -0.7856    5.0654   -0.0551 H       1  UNL1        0.0000
     51 H           0.6048    5.6691   -0.9271 H       1  UNL1        0.0000
     52 H          -0.4361    4.3919    4.8485 H       1  UNL1        0.0000
     53 H          -2.5243    5.6210    5.4265 H       1  UNL1        0.0000
     54 H          -2.3871    7.9406    6.2549 H       1  UNL1        0.0000
     55 H          -0.1923    9.0262    6.5241 H       1  UNL1        0.0000
     56 H           1.8695    7.8051    5.9595 H       1  UNL1        0.0000
     57 H           5.0542    4.4686    5.2305 H       1  UNL1        0.0000
     58 H           6.5616    4.4470    7.1849 H       1  UNL1        0.0000
     59 H           5.6916    5.0476    9.4144 H       1  UNL1        0.0000
     60 H           3.3145    5.6433    9.6859 H       1  UNL1        0.0000
     61 H           1.8161    5.6762    7.7355 H       1  UNL1        0.0000
     62 H           3.9774    1.5670    2.9630 H       1  UNL1        0.0000
     63 H           6.0465    0.6006    1.9709 H       1  UNL1        0.0000
     64 H           5.8826   -0.8840    0.0072 H       1  UNL1        0.0000
     65 H           3.6779   -1.4182   -0.9536 H       1  UNL1        0.0000
     66 H           1.6353   -0.4671    0.0323 H       1  UNL1        0.0000
     67 H          -1.3344    1.3804    3.4228 H       1  UNL1        0.0000
     68 H          -2.8872   -0.3930    4.1775 H       1  UNL1        0.0000
     69 H          -2.1967   -2.7590    4.0536 H       1  UNL1        0.0000
     70 H           0.0398   -3.3437    3.1992 H       1  UNL1        0.0000
     71 H           1.5760   -1.5809    2.4389 H       1  UNL1        0.0000
@<TRIPOS>BOND
     1    49    11    1
     2    46    10    1
     3    47    10    1
     4    65    28    1
     5    51    11    1
     6    10    48    1
     7    10     4    1
     8    11    50    1
     9    11     4    1
    10    45     9    1
    11    28    27   ar
    12    28    29   ar
    13    64    27    1
    14    66    29    1
    15    38     7    1
    16     4     7    1
    17     4     5    1
    18    27    26   ar
    19    29    24   ar
    20    44     9    1
    21     9    43    1
    22     9     3    1
    23     7    39    1
    24     7     2    1
    25    41     8    1
    26    26    63    1
    27    26    25   ar
    28    24    25   ar
    29    24     2    1
    30     5     3    1
    31     3     8    1
    32     3     6    1
    33    25    62    1
    34     8    40    1
    35     8    42    1
    36     2    30    1
    37    71    35    1
    38    35    30   ar
    39    35    34   ar
    40    30    31   ar
    41    70    34    1
    42    34    33   ar
    43    31    67    1
    44    31    32   ar
    45    37     6    1
    46     6    36    1
    47     6     1    1
    48    33    32   ar
    49    33    69    1
    50    32    68    1
    51     1    12    1
    52     1    18    1
    53    52    13    1
    54    13    12   ar
    55    13    14   ar
    56    57    19    1
    57    12    17   ar
    58    53    14    1
    59    14    15   ar
    60    17    56    1
    61    17    16   ar
    62    15    16   ar
    63    15    54    1
    64    16    55    1
    65    19    18   ar
    66    19    20   ar
    67    18    23   ar
    68    58    20    1
    69    20    21   ar
    70    23    61    1
    71    23    22   ar
    72    21    22   ar
    73    21    59    1
    74    22    60    1
