@<TRIPOS>MOLECULE
1,2,5
 67 66 0 0 0
SMALL
GASTEIGER

@<TRIPOS>ATOM
      1 P           1.9809    3.9648   10.4968 P.3     1  UNL1        0.0000
      2 P           4.6866    4.9410   14.3262 P.3     1  UNL1        0.0000
      3 SI          0.7221    6.1322   12.2417 Si      1  UNL1        0.0000
      4 SI          1.7420    5.3170   15.0002 Si      1  UNL1        0.0000
      5 N           1.8653    5.3756   13.2822 N.3     1  UNL1        0.0000
      6 C           1.3594    7.8210   11.5874 C.3     1  UNL1        0.0000
      7 H           1.4372    8.5394   12.3983 H       1  UNL1        0.0000
      8 H           0.6803    8.2375   10.8483 H       1  UNL1        0.0000
      9 H           2.3395    7.7398   11.1250 H       1  UNL1        0.0000
     10 C          -0.9991    6.4201   12.9936 C.3     1  UNL1        0.0000
     11 H          -0.9561    7.2120   13.7296 H       1  UNL1        0.0000
     12 H          -1.3839    5.5336   13.4844 H       1  UNL1        0.0000
     13 H          -1.7105    6.7173   12.2308 H       1  UNL1        0.0000
     14 C           0.4747    4.9787   10.7220 C.3     1  UNL1        0.0000
     15 H          -0.3687    4.3156   10.9055 H       1  UNL1        0.0000
     16 H           0.2695    5.5414    9.8125 H       1  UNL1        0.0000
     17 C           1.3075    2.2223   10.3815 C.3     1  UNL1        0.0000
     18 H           2.1948    1.5888   10.2557 H       1  UNL1        0.0000
     19 C           0.6496    1.8547   11.7104 C.3     1  UNL1        0.0000
     20 H           0.4920    0.7786   11.7719 H       1  UNL1        0.0000
     21 H          -0.3167    2.3431   11.8198 H       1  UNL1        0.0000
     22 H           1.2838    2.1639   12.5411 H       1  UNL1        0.0000
     23 C           0.3437    1.9795    9.2233 C.3     1  UNL1        0.0000
     24 H          -0.0961    0.9871    9.3190 H       1  UNL1        0.0000
     25 H           0.8452    2.0297    8.2602 H       1  UNL1        0.0000
     26 H          -0.4674    2.7058    9.2297 H       1  UNL1        0.0000
     27 C           2.4161    4.3392    8.7202 C.3     1  UNL1        0.0000
     28 H           1.4938    4.2169    8.1374 H       1  UNL1        0.0000
     29 C           2.8886    5.7833    8.6003 C.3     1  UNL1        0.0000
     30 H           3.1205    6.0217    7.5626 H       1  UNL1        0.0000
     31 H           3.7901    5.9225    9.1952 H       1  UNL1        0.0000
     32 H           2.1300    6.4810    8.9497 H       1  UNL1        0.0000
     33 C           3.4898    3.3944    8.1928 C.3     1  UNL1        0.0000
     34 H           3.7066    3.6200    7.1489 H       1  UNL1        0.0000
     35 H           3.1810    2.3540    8.2599 H       1  UNL1        0.0000
     36 H           4.4040    3.5161    8.7673 H       1  UNL1        0.0000
     37 C           0.6186    3.8825   15.5932 C.3     1  UNL1        0.0000
     38 H          -0.3994    4.0304   15.2485 H       1  UNL1        0.0000
     39 H           0.5918    3.8280   16.6775 H       1  UNL1        0.0000
     40 H           0.9567    2.9211   15.2182 H       1  UNL1        0.0000
     41 C           1.0904    6.9243   15.7997 C.3     1  UNL1        0.0000
     42 H           0.0217    6.8348   15.9517 H       1  UNL1        0.0000
     43 H           1.2606    7.7962   15.1781 H       1  UNL1        0.0000
     44 H           1.5410    7.1077   16.7696 H       1  UNL1        0.0000
     45 C           3.4938    4.9326   15.6982 C.3     1  UNL1        0.0000
     46 H           3.8102    5.6239   16.4772 H       1  UNL1        0.0000
     47 H           3.4903    3.9285   16.1166 H       1  UNL1        0.0000
     48 C           5.4210    6.6561   14.3894 C.3     1  UNL1        0.0000
     49 H           6.1050    6.6932   13.5321 H       1  UNL1        0.0000
     50 C           4.3033    7.6705   14.1680 C.3     1  UNL1        0.0000
     51 H           4.7110    8.6408   13.8843 H       1  UNL1        0.0000
     52 H           3.7213    7.7968   15.0778 H       1  UNL1        0.0000
     53 H           3.6278    7.3315   13.3847 H       1  UNL1        0.0000
     54 C           6.1988    6.9951   15.6580 C.3     1  UNL1        0.0000
     55 H           6.5134    8.0378   15.6179 H       1  UNL1        0.0000
     56 H           7.0888    6.3815   15.7680 H       1  UNL1        0.0000
     57 H           5.5818    6.8697   16.5456 H       1  UNL1        0.0000
     58 C           6.0875    3.8810   14.9562 C.3     1  UNL1        0.0000
     59 H           6.3304    4.2164   15.9722 H       1  UNL1        0.0000
     60 C           5.6534    2.4209   15.0004 C.3     1  UNL1        0.0000
     61 H           6.4692    1.7950   15.3598 H       1  UNL1        0.0000
     62 H           5.3743    2.1002   13.9987 H       1  UNL1        0.0000
     63 H           4.7988    2.2777   15.6571 H       1  UNL1        0.0000
     64 C           7.2988    4.0227   14.0405 C.3     1  UNL1        0.0000
     65 H           8.0796    3.3220   14.3339 H       1  UNL1        0.0000
     66 H           7.7153    5.0262   14.0675 H       1  UNL1        0.0000
     67 H           6.9994    3.8021   13.0182 H       1  UNL1        0.0000
@<TRIPOS>BOND
     1    34    33    1
     2    30    29    1
     3    28    27    1
     4    33    35    1
     5    33    27    1
     6    33    36    1
     7    25    23    1
     8    29    27    1
     9    29    32    1
    10    29    31    1
    11    27     1    1
    12    23    26    1
    13    23    24    1
    14    23    17    1
    15    16    14    1
    16    18    17    1
    17    17     1    1
    18    17    19    1
    19     1    14    1
    20    14    15    1
    21    14     3    1
    22     8     6    1
    23     9     6    1
    24     6     3    1
    25     6     7    1
    26    19    20    1
    27    19    21    1
    28    19    22    1
    29    13    10    1
    30     3    10    1
    31     3     5    1
    32    10    12    1
    33    10    11    1
    34    67    64    1
    35     5     4    1
    36    53    50    1
    37    49    48    1
    38    51    50    1
    39    62    60    1
    40    64    66    1
    41    64    65    1
    42    64    58    1
    43    50    48    1
    44    50    52    1
    45     2    48    1
    46     2    58    1
    47     2    45    1
    48    48    54    1
    49    58    60    1
    50    58    59    1
    51     4    37    1
    52     4    45    1
    53     4    41    1
    54    60    61    1
    55    60    63    1
    56    43    41    1
    57    40    37    1
    58    38    37    1
    59    37    39    1
    60    55    54    1
    61    54    56    1
    62    54    57    1
    63    45    47    1
    64    45    46    1
    65    41    42    1
    66    41    44    1
