@<TRIPOS>MOLECULE
1,2,5
 95 98 0 0 0
SMALL
GASTEIGER

@<TRIPOS>ATOM
      1 P           4.4699    4.3816    4.2029 P.3     1  UNL1        0.0000
      2 P           2.5908    1.7376    0.7784 P.3     1  UNL1        0.0000
      3 SI          4.2925    1.4915    5.3527 Si      1  UNL1        0.0000
      4 SI          2.8398   -0.1720    3.2420 Si      1  UNL1        0.0000
      5 N           3.6521    1.2186    3.7969 N.3     1  UNL1        0.0000
      6 C           6.1044    0.9042    5.5870 C.3     1  UNL1        0.0000
      7 H           6.7393    1.2042    4.7597 H       1  UNL1        0.0000
      8 H           6.1225   -0.1802    5.6311 H       1  UNL1        0.0000
      9 H           6.5485    1.2753    6.5071 H       1  UNL1        0.0000
     10 C           3.3029    0.6617    6.7506 C.3     1  UNL1        0.0000
     11 H           3.3715   -0.4135    6.6468 H       1  UNL1        0.0000
     12 H           2.2534    0.9284    6.7369 H       1  UNL1        0.0000
     13 H           3.7061    0.9256    7.7218 H       1  UNL1        0.0000
     14 C           4.1772    3.3836    5.6967 C.3     1  UNL1        0.0000
     15 H           3.1709    3.6125    6.0467 H       1  UNL1        0.0000
     16 H           4.8791    3.6932    6.4688 H       1  UNL1        0.0000
     17 C           6.0776    5.2662    4.6009 C.3     1  UNL1        0.0000
     18 H           6.2537    5.9290    3.7457 H       1  UNL1        0.0000
     19 C           7.2226    4.2595    4.6690 C.3     1  UNL1        0.0000
     20 H           7.0660    3.5886    5.5153 H       1  UNL1        0.0000
     21 H           7.2242    3.6509    3.7606 H       1  UNL1        0.0000
     22 C           8.5671    4.9631    4.8260 C.3     1  UNL1        0.0000
     23 H           9.3674    4.2216    4.8805 H       1  UNL1        0.0000
     24 H           8.7580    5.5959    3.9542 H       1  UNL1        0.0000
     25 C           8.5668    5.8262    6.0828 C.3     1  UNL1        0.0000
     26 H           8.4445    5.1876    6.9606 H       1  UNL1        0.0000
     27 H           9.5201    6.3506    6.1804 H       1  UNL1        0.0000
     28 C           7.4226    6.8317    6.0235 C.3     1  UNL1        0.0000
     29 H           7.5774    7.5056    5.1764 H       1  UNL1        0.0000
     30 H           7.4110    7.4380    6.9324 H       1  UNL1        0.0000
     31 C           6.0759    6.1245    5.8672 C.3     1  UNL1        0.0000
     32 H           5.2919    6.8813    5.8264 H       1  UNL1        0.0000
     33 H           5.9006    5.5029    6.7476 H       1  UNL1        0.0000
     34 C           3.2425    5.7798    4.4352 C.3     1  UNL1        0.0000
     35 H           3.3729    6.1125    5.4739 H       1  UNL1        0.0000
     36 C           1.7969    5.3236    4.2655 C.3     1  UNL1        0.0000
     37 H           1.6447    5.0098    3.2320 H       1  UNL1        0.0000
     38 H           1.5829    4.4687    4.9118 H       1  UNL1        0.0000
     39 C           0.8371    6.4685    4.5780 C.3     1  UNL1        0.0000
     40 H           0.9774    6.7976    5.6110 H       1  UNL1        0.0000
     41 H          -0.1951    6.1247    4.4761 H       1  UNL1        0.0000
     42 C           1.0948    7.6359    3.6311 C.3     1  UNL1        0.0000
     43 H           0.8976    7.3181    2.6043 H       1  UNL1        0.0000
     44 H           0.4209    8.4644    3.8606 H       1  UNL1        0.0000
     45 C           2.5441    8.0956    3.7476 C.3     1  UNL1        0.0000
     46 H           2.7189    8.4834    4.7550 H       1  UNL1        0.0000
     47 H           2.7364    8.9071    3.0416 H       1  UNL1        0.0000
     48 C           3.5088    6.9415    3.4805 C.3     1  UNL1        0.0000
     49 H           4.5336    7.3034    3.5868 H       1  UNL1        0.0000
     50 H           3.3824    6.5822    2.4550 H       1  UNL1        0.0000
     51 C           3.9179   -1.7530    3.3209 C.3     1  UNL1        0.0000
     52 H           4.8604   -1.6349    2.7957 H       1  UNL1        0.0000
     53 H           3.4041   -2.6136    2.9031 H       1  UNL1        0.0000
     54 H           4.1486   -1.9795    4.3561 H       1  UNL1        0.0000
     55 C           1.2308   -0.5944    4.1914 C.3     1  UNL1        0.0000
     56 H           1.4865   -1.2006    5.0522 H       1  UNL1        0.0000
     57 H           0.5339   -1.1677    3.5870 H       1  UNL1        0.0000
     58 H           0.7158    0.2865    4.5581 H       1  UNL1        0.0000
     59 C           2.4005    0.0362    1.3776 C.3     1  UNL1        0.0000
     60 H           3.1143   -0.5621    0.8115 H       1  UNL1        0.0000
     61 H           1.3945   -0.3075    1.1337 H       1  UNL1        0.0000
     62 C           2.8982    1.4828   -1.0588 C.3     1  UNL1        0.0000
     63 H           2.8491    2.4878   -1.4996 H       1  UNL1        0.0000
     64 C           1.8902    0.5861   -1.7780 C.3     1  UNL1        0.0000
     65 H           1.9158   -0.4169   -1.3476 H       1  UNL1        0.0000
     66 H           0.8759    0.9743   -1.6771 H       1  UNL1        0.0000
     67 C           2.2273    0.5024   -3.2670 C.3     1  UNL1        0.0000
     68 H           1.5018   -0.1424   -3.7686 H       1  UNL1        0.0000
     69 H           2.1501    1.4987   -3.7109 H       1  UNL1        0.0000
     70 C           3.6371   -0.0368   -3.4813 C.3     1  UNL1        0.0000
     71 H           3.8652   -0.0730   -4.5488 H       1  UNL1        0.0000
     72 H           3.6995   -1.0551   -3.0907 H       1  UNL1        0.0000
     73 C           4.6483    0.8453   -2.7569 C.3     1  UNL1        0.0000
     74 H           4.6343    1.8459   -3.1985 H       1  UNL1        0.0000
     75 H           5.6557    0.4411   -2.8817 H       1  UNL1        0.0000
     76 C           4.3038    0.9273   -1.2732 C.3     1  UNL1        0.0000
     77 H           5.0207    1.5608   -0.7457 H       1  UNL1        0.0000
     78 H           4.3725   -0.0741   -0.8409 H       1  UNL1        0.0000
     79 C           0.8314    2.3608    0.7540 C.3     1  UNL1        0.0000
     80 H           0.2783    1.6957    0.0786 H       1  UNL1        0.0000
     81 C           0.1847    2.2668    2.1315 C.3     1  UNL1        0.0000
     82 H           0.1939    1.2313    2.4711 H       1  UNL1        0.0000
     83 H           0.7647    2.8515    2.8480 H       1  UNL1        0.0000
     84 C          -1.2518    2.7826    2.0948 C.3     1  UNL1        0.0000
     85 H          -1.8517    2.1459    1.4382 H       1  UNL1        0.0000
     86 H          -1.6850    2.7293    3.0961 H       1  UNL1        0.0000
     87 C          -1.2987    4.2177    1.5815 C.3     1  UNL1        0.0000
     88 H          -0.7427    4.8644    2.2634 H       1  UNL1        0.0000
     89 H          -2.3319    4.5717    1.5499 H       1  UNL1        0.0000
     90 C          -0.6774    4.2957    0.1913 C.3     1  UNL1        0.0000
     91 H          -1.2643    3.6867   -0.5018 H       1  UNL1        0.0000
     92 H          -0.6984    5.3262   -0.1719 H       1  UNL1        0.0000
     93 C           0.7618    3.7889    0.2192 C.3     1  UNL1        0.0000
     94 H           1.3658    4.4345    0.8609 H       1  UNL1        0.0000
     95 H           1.1853    3.8339   -0.7876 H       1  UNL1        0.0000
@<TRIPOS>BOND
     1    71    70    1
     2    68    67    1
     3    69    67    1
     4    70    67    1
     5    70    72    1
     6    70    73    1
     7    67    64    1
     8    74    73    1
     9    75    73    1
    10    73    76    1
    11    64    66    1
    12    64    65    1
    13    64    62    1
    14    63    62    1
    15    76    62    1
    16    76    78    1
    17    76    77    1
    18    62     2    1
    19    95    93    1
    20    91    90    1
    21    92    90    1
    22    80    79    1
    23    90    93    1
    24    90    87    1
    25    93    79    1
    26    93    94    1
    27    79     2    1
    28    79    81    1
    29     2    59    1
    30    60    59    1
    31    61    59    1
    32    59     4    1
    33    85    84    1
    34    89    87    1
    35    87    84    1
    36    87    88    1
    37    84    81    1
    38    84    86    1
    39    81    82    1
    40    81    83    1
    41    50    48    1
    42    43    42    1
    43    52    51    1
    44    53    51    1
    45    47    45    1
    46    37    36    1
    47     4    51    1
    48     4     5    1
    49     4    55    1
    50    51    54    1
    51    48    49    1
    52    48    45    1
    53    48    34    1
    54    57    55    1
    55    42    45    1
    56    42    44    1
    57    42    39    1
    58    18    17    1
    59    45    46    1
    60    21    19    1
    61     5     3    1
    62    24    22    1
    63    55    58    1
    64    55    56    1
    65     1    34    1
    66     1    17    1
    67     1    14    1
    68    36    34    1
    69    36    39    1
    70    36    38    1
    71    34    35    1
    72    41    39    1
    73    39    40    1
    74    17    19    1
    75    17    31    1
    76    19    22    1
    77    19    20    1
    78     7     6    1
    79    22    23    1
    80    22    25    1
    81    29    28    1
    82     3     6    1
    83     3    14    1
    84     3    10    1
    85     6     8    1
    86     6     9    1
    87    14    15    1
    88    14    16    1
    89    32    31    1
    90    31    28    1
    91    31    33    1
    92    28    25    1
    93    28    30    1
    94    25    27    1
    95    25    26    1
    96    11    10    1
    97    12    10    1
    98    10    13    1
