@<TRIPOS>MOLECULE
1,2,3
 69 70 0 0 0
SMALL
GASTEIGER

@<TRIPOS>ATOM
      1 P           6.0384    8.9604    3.6405 P.3     1  UNL1       -0.0674
      2 P          11.0398   10.5121    5.1402 P.3     1  UNL1       -0.0674
      3 N           8.1003   10.4717    5.2351 N.pl3   1  UNL1       -0.2137
      4 C           6.9799   11.2174    4.9458 C.ar    1  UNL1        0.0613
      5 C           5.9053   10.7037    4.1805 C.ar    1  UNL1        0.0002
      6 C           4.6752    8.7873    2.3570 C.3     1  UNL1       -0.0219
      7 H           3.7411    9.1705    2.7832 H       1  UNL1        0.0346
      8 C           4.4559    7.3266    1.9684 C.3     1  UNL1       -0.0584
      9 H           3.7682    7.2754    1.1250 H       1  UNL1        0.0236
     10 H           4.0187    6.7527    2.7815 H       1  UNL1        0.0236
     11 H           5.3895    6.8538    1.6759 H       1  UNL1        0.0236
     12 C           5.0486    9.6009    1.1203 C.3     1  UNL1       -0.0584
     13 H           5.9785    9.2334    0.6900 H       1  UNL1        0.0236
     14 H           5.1814   10.6528    1.3614 H       1  UNL1        0.0236
     15 H           4.2672    9.5197    0.3654 H       1  UNL1        0.0236
     16 C           5.2557    8.0593    5.1007 C.3     1  UNL1       -0.0219
     17 H           4.8262    7.1404    4.6874 H       1  UNL1        0.0346
     18 C           4.1493    8.8550    5.7847 C.3     1  UNL1       -0.0584
     19 H           3.6993    8.2554    6.5748 H       1  UNL1        0.0236
     20 H           3.3647    9.1356    5.0856 H       1  UNL1        0.0236
     21 H           4.5493    9.7630    6.2300 H       1  UNL1        0.0236
     22 C           6.3483    7.6661    6.0896 C.3     1  UNL1       -0.0584
     23 H           6.8003    8.5499    6.5354 H       1  UNL1        0.0236
     24 H           7.1257    7.0869    5.5881 H       1  UNL1        0.0236
     25 H           5.9295    7.0598    6.8927 H       1  UNL1        0.0236
     26 C           4.8231   11.5241    3.8729 C.ar    1  UNL1       -0.0494
     27 H           3.9964   11.1328    3.2997 H       1  UNL1        0.0627
     28 C           4.7475   12.8390    4.2959 C.ar    1  UNL1       -0.0497
     29 C           5.8042   13.3454    5.0498 C.ar    1  UNL1       -0.0570
     30 H           5.7731   14.3721    5.3869 H       1  UNL1        0.0621
     31 C           6.8845   12.5595    5.3655 C.ar    1  UNL1       -0.0378
     32 H           7.6963   12.9721    5.9488 H       1  UNL1        0.0637
     33 C           3.5640   13.6997    3.9670 C.3     1  UNL1       -0.0397
     34 H           2.8744   13.1786    3.3071 H       1  UNL1        0.0278
     35 H           3.8846   14.6190    3.4784 H       1  UNL1        0.0278
     36 H           3.0292   13.9761    4.8759 H       1  UNL1        0.0278
     37 C           8.6558   10.6599    6.4822 C.ar    1  UNL1        0.0613
     38 C           7.8539   10.8151    7.6270 C.ar    1  UNL1       -0.0378
     39 H           6.7793   10.8352    7.5071 H       1  UNL1        0.0637
     40 C           8.4012   10.9367    8.8833 C.ar    1  UNL1       -0.0570
     41 H           7.7483   11.0467    9.7379 H       1  UNL1        0.0621
     42 C           9.7790   10.9157    9.0700 C.ar    1  UNL1       -0.0497
     43 C          10.5873   10.7752    7.9518 C.ar    1  UNL1       -0.0494
     44 H          11.6570   10.7781    8.0998 H       1  UNL1        0.0627
     45 C          10.0592   10.6563    6.6728 C.ar    1  UNL1        0.0002
     46 C          12.8078   10.3433    5.7447 C.3     1  UNL1       -0.0219
     47 H          12.9980   11.1082    6.5053 H       1  UNL1        0.0346
     48 C          12.9822    8.9552    6.3585 C.3     1  UNL1       -0.0584
     49 H          12.7888    8.1825    5.6159 H       1  UNL1        0.0236
     50 H          12.3006    8.7978    7.1904 H       1  UNL1        0.0236
     51 H          14.0016    8.8308    6.7224 H       1  UNL1        0.0236
     52 C          13.7937   10.5279    4.5941 C.3     1  UNL1       -0.0584
     53 H          14.7920   10.2278    4.9112 H       1  UNL1        0.0236
     54 H          13.8464   11.5662    4.2787 H       1  UNL1        0.0236
     55 H          13.5095    9.9194    3.7381 H       1  UNL1        0.0236
     56 C          10.8616   12.3023    4.5876 C.3     1  UNL1       -0.0219
     57 H           9.7720   12.4401    4.6092 H       1  UNL1        0.0346
     58 C          11.3246   12.5074    3.1489 C.3     1  UNL1       -0.0584
     59 H          10.9050   13.4302    2.7503 H       1  UNL1        0.0236
     60 H          10.9967   11.6778    2.5213 H       1  UNL1        0.0236
     61 H          12.4069   12.5870    3.0880 H       1  UNL1        0.0236
     62 C          11.4946   13.3064    5.5456 C.3     1  UNL1       -0.0584
     63 H          12.5806   13.2608    5.5069 H       1  UNL1        0.0236
     64 H          11.1709   13.1223    6.5688 H       1  UNL1        0.0236
     65 H          11.1936   14.3162    5.2706 H       1  UNL1        0.0236
     66 C          10.3888   11.0633   10.4327 C.3     1  UNL1       -0.0397
     67 H          11.1492   10.3018   10.5992 H       1  UNL1        0.0278
     68 H           9.6304   10.9726   11.2061 H       1  UNL1        0.0278
     69 H          10.8655   12.0390   10.5346 H       1  UNL1        0.0278
@<TRIPOS>BOND
     1    15    12    1
     2    13    12    1
     3    12    14    1
     4    12     6    1
     5     9     8    1
     6    11     8    1
     7     8     6    1
     8     8    10    1
     9     6     7    1
    10     6     1    1
    11    60    58    1
    12    59    58    1
    13    61    58    1
    14    58    56    1
    15    27    26    1
    16    34    33    1
    17    35    33    1
    18     1     5    1
    19     1    16    1
    20    55    52    1
    21    26     5   ar
    22    26    28   ar
    23    33    28    1
    24    33    36    1
    25     5     4   ar
    26    54    52    1
    27    28    29   ar
    28    56    57    1
    29    56     2    1
    30    56    62    1
    31    52    53    1
    32    52    46    1
    33    17    16    1
    34     4     3    1
    35     4    31   ar
    36    29    31   ar
    37    29    30    1
    38    20    18    1
    39    16    18    1
    40    16    22    1
    41     2    46    1
    42     2    45    1
    43     3    37    1
    44    65    62    1
    45    31    32    1
    46    63    62    1
    47    62    64    1
    48    24    22    1
    49    49    48    1
    50    46    48    1
    51    46    47    1
    52    18    21    1
    53    18    19    1
    54    22    23    1
    55    22    25    1
    56    48    51    1
    57    48    50    1
    58    37    45   ar
    59    37    38   ar
    60    45    43   ar
    61    39    38    1
    62    38    40   ar
    63    43    44    1
    64    43    42   ar
    65    40    42   ar
    66    40    41    1
    67    42    66    1
    68    66    69    1
    69    66    67    1
    70    66    68    1
