@<TRIPOS>MOLECULE
1,11,51
 73 77 0 0 0
SMALL
GASTEIGER

@<TRIPOS>ATOM
      1 N           2.6872    3.6288    7.3055 N.pl3   1  UNL1        0.5000
      2 C           3.3014    4.8016    7.1019 C.3     1  UNL1        0.0000
      3 C           3.0268    5.9291    7.8716 C.2     1  UNL1        0.0000
      4 H           3.5404    6.8594    7.6864 H       1  UNL1        0.0000
      5 C           2.0769    5.8364    8.8865 C.2     1  UNL1        0.0000
      6 C           1.4332    4.6172    9.0880 C.2     1  UNL1        0.0000
      7 H           0.6904    4.5126    9.8633 H       1  UNL1        0.0000
      8 C           1.7650    3.5382    8.2728 C.2     1  UNL1        0.0000
      9 N           4.2345    4.8547    6.1005 N.3     1  UNL1        0.0000
     10 H           4.6939    5.7455    5.9463 H       1  UNL1        0.0000
     11 P           4.6010    3.4827    5.1715 P.3     1  UNL1        0.0000
     12 C           6.3843    3.3115    5.4541 C.ar    1  UNL1        0.0000
     13 C           6.9495    3.6377    6.6815 C.ar    1  UNL1        0.0000
     14 H           6.3338    4.0784    7.4568 H       1  UNL1        0.0000
     15 C           8.2905    3.3916    6.9124 C.ar    1  UNL1        0.0000
     16 H           8.7299    3.6495    7.8654 H       1  UNL1        0.0000
     17 C           9.0678    2.8070    5.9260 C.ar    1  UNL1        0.0000
     18 H          10.1145    2.6131    6.1097 H       1  UNL1        0.0000
     19 C           8.5028    2.4597    4.7086 C.ar    1  UNL1        0.0000
     20 H           9.1082    1.9918    3.9460 H       1  UNL1        0.0000
     21 C           7.1636    2.7065    4.4733 C.ar    1  UNL1        0.0000
     22 H           6.7049    2.4305    3.5320 H       1  UNL1        0.0000
     23 C           4.6077    4.1901    3.4966 C.ar    1  UNL1        0.0000
     24 C           5.3642    5.3194    3.1944 C.ar    1  UNL1        0.0000
     25 H           5.9847    5.7734    3.9578 H       1  UNL1        0.0000
     26 C           5.3385    5.8454    1.9170 C.ar    1  UNL1        0.0000
     27 H           5.9227    6.7238    1.6824 H       1  UNL1        0.0000
     28 C           4.5685    5.2420    0.9340 C.ar    1  UNL1        0.0000
     29 H           4.5522    5.6551   -0.0639 H       1  UNL1        0.0000
     30 C           3.8298    4.1076    1.2263 C.ar    1  UNL1        0.0000
     31 H           3.2398    3.6330    0.4561 H       1  UNL1        0.0000
     32 C           3.8487    3.5812    2.5064 C.ar    1  UNL1        0.0000
     33 H           3.2868    2.6890    2.7532 H       1  UNL1        0.0000
     34 C           1.7771    6.9526    9.6992 C.1     1  UNL1        0.0000
     35 C           1.5248    7.9055   10.4002 C.1     1  UNL1        0.0000
     36 SI          1.1390    9.3654   11.4849 Si      1  UNL1        0.0000
     37 C          -0.0008   10.5422   10.5118 C.3     1  UNL1        0.0000
     38 H           0.4779   10.8903    9.6013 H       1  UNL1        0.0000
     39 H          -0.2622   11.4165   11.1012 H       1  UNL1        0.0000
     40 H          -0.9252   10.0486   10.2271 H       1  UNL1        0.0000
     41 C           0.2701    8.7196   13.0533 C.3     1  UNL1        0.0000
     42 H          -0.6529    8.2030   12.8071 H       1  UNL1        0.0000
     43 H           0.0217    9.5311   13.7314 H       1  UNL1        0.0000
     44 H           0.9022    8.0213   13.5940 H       1  UNL1        0.0000
     45 C           2.7832   10.2231   11.9248 C.3     1  UNL1        0.0000
     46 H           3.4524    9.5466   12.4480 H       1  UNL1        0.0000
     47 H           2.6206   11.0855   12.5651 H       1  UNL1        0.0000
     48 H           3.2978   10.5683   11.0330 H       1  UNL1        0.0000
     49 N           1.1551    2.3238    8.4454 N.pl3   1  UNL1        0.5000
     50 H           0.4502    2.2616    9.1718 H       1  UNL1        0.0000
     51 P           1.5677    0.9919    7.4785 P.3     1  UNL1        0.0000
     52 C           2.0856   -0.2225    8.7218 C.ar    1  UNL1        0.0000
     53 C           1.9710   -1.5754    8.4185 C.ar    1  UNL1        0.0000
     54 H           1.5003   -1.8679    7.4880 H       1  UNL1        0.0000
     55 C           2.4595   -2.5248    9.2957 C.ar    1  UNL1        0.0000
     56 H           2.3688   -3.5753    9.0608 H       1  UNL1        0.0000
     57 C           3.0719   -2.1284   10.4746 C.ar    1  UNL1        0.0000
     58 H           3.4541   -2.8708   11.1598 H       1  UNL1        0.0000
     59 C           3.2056   -0.7819   10.7707 C.ar    1  UNL1        0.0000
     60 H           3.6949   -0.4750   11.6840 H       1  UNL1        0.0000
     61 C           2.7206    0.1712    9.8939 C.ar    1  UNL1        0.0000
     62 H           2.8394    1.2257   10.1134 H       1  UNL1        0.0000
     63 C          -0.0792    0.3421    7.0644 C.ar    1  UNL1        0.0000
     64 C          -0.3986    0.1150    5.7327 C.ar    1  UNL1        0.0000
     65 H           0.3494    0.3124    4.9749 H       1  UNL1        0.0000
     66 C          -1.6504   -0.3688    5.3937 C.ar    1  UNL1        0.0000
     67 H          -1.8982   -0.5460    4.3575 H       1  UNL1        0.0000
     68 C          -2.5837   -0.6268    6.3838 C.ar    1  UNL1        0.0000
     69 H          -3.5616   -1.0021    6.1200 H       1  UNL1        0.0000
     70 C          -2.2639   -0.4140    7.7164 C.ar    1  UNL1        0.0000
     71 H          -2.9907   -0.6273    8.4871 H       1  UNL1        0.0000
     72 C          -1.0135    0.0641    8.0588 C.ar    1  UNL1        0.0000
     73 H          -0.7516    0.2076    9.1003 H       1  UNL1        0.0000
@<TRIPOS>BOND
     1    29    28    1
     2    31    30    1
     3    28    30   ar
     4    28    26   ar
     5    30    32   ar
     6    27    26    1
     7    26    24   ar
     8    32    33    1
     9    32    23   ar
    10    24    23   ar
    11    24    25    1
    12    23    11    1
    13    22    21    1
    14    20    19    1
    15    67    66    1
    16    21    19   ar
    17    21    12   ar
    18    19    17   ar
    19    65    64    1
    20    11    12    1
    21    11     9    1
    22    66    64   ar
    23    66    68   ar
    24    12    13   ar
    25    64    63   ar
    26    17    18    1
    27    17    15   ar
    28    10     9    1
    29     9     2    1
    30    69    68    1
    31    68    70   ar
    32    13    15   ar
    33    13    14    1
    34    15    16    1
    35    63    51    1
    36    63    72   ar
    37     2     1    1
    38     2     3    1
    39     1     8    1
    40    51    49    1
    41    51    52    1
    42    54    53    1
    43     4     3    1
    44    70    72   ar
    45    70    71    1
    46     3     5    2
    47    72    73    1
    48     8    49    1
    49     8     6    2
    50    53    52   ar
    51    53    55   ar
    52    49    50    1
    53    52    61   ar
    54     5     6    1
    55     5    34    1
    56    56    55    1
    57     6     7    1
    58    55    57   ar
    59    38    37    1
    60    34    35    3
    61    61    62    1
    62    61    59   ar
    63    40    37    1
    64    35    36    1
    65    57    59   ar
    66    57    58    1
    67    37    39    1
    68    37    36    1
    69    59    60    1
    70    48    45    1
    71    36    45    1
    72    36    41    1
    73    45    46    1
    74    45    47    1
    75    42    41    1
    76    41    44    1
    77    41    43    1
