@<TRIPOS>MOLECULE
1,2,5
 67 66 0 0 0
SMALL
GASTEIGER

@<TRIPOS>ATOM
      1 P           0.3969    2.0212    5.5435 P.3     1  UNL1        0.0000
      2 P           2.3067    5.8330    9.2349 P.3     1  UNL1        0.0000
      3 SI          3.4816    2.5794    5.7887 Si      1  UNL1        0.0000
      4 SI          3.7023    3.0107    8.7880 Si      1  UNL1        0.0000
      5 N           2.9253    3.1810    7.2818 N.3     1  UNL1        0.0000
      6 C           1.9563    2.3168    4.6279 C.3     1  UNL1        0.0000
      7 C           3.0115    4.3326   10.0185 C.3     1  UNL1        0.0000
      8 C          -0.8560    1.6860    4.1639 C.3     1  UNL1        0.0000
      9 C           0.7365    0.3010    6.2303 C.3     1  UNL1        0.0000
     10 C           2.0480    6.9876   10.7145 C.3     1  UNL1        0.0000
     11 C           3.8551    6.5703    8.4517 C.3     1  UNL1        0.0000
     12 C           4.6102    3.8282    4.8683 C.3     1  UNL1        0.0000
     13 C           4.4661    0.9419    5.8592 C.3     1  UNL1        0.0000
     14 C           5.6094    3.1565    8.7224 C.3     1  UNL1        0.0000
     15 C           3.3605    1.3190    9.6284 C.3     1  UNL1        0.0000
     16 C          -2.2452    1.9608    4.7389 C.3     1  UNL1        0.0000
     17 C          -0.6207    2.5833    2.9541 C.3     1  UNL1        0.0000
     18 C          -0.4954   -0.2541    6.9428 C.3     1  UNL1        0.0000
     19 C           1.2696   -0.7297    5.2392 C.3     1  UNL1        0.0000
     20 C           1.0151    8.0401   10.3163 C.3     1  UNL1        0.0000
     21 C           1.5622    6.2476   11.9554 C.3     1  UNL1        0.0000
     22 C           3.5605    7.9539    7.8721 C.3     1  UNL1        0.0000
     23 C           5.0975    6.6433    9.3345 C.3     1  UNL1        0.0000
     24 H           2.1306    1.5227    3.9021 H       1  UNL1        0.0000
     25 H           1.8111    3.2391    4.0675 H       1  UNL1        0.0000
     26 H           3.7663    4.6151   10.7536 H       1  UNL1        0.0000
     27 H           2.1867    3.8735   10.5637 H       1  UNL1        0.0000
     28 H          -0.7915    0.6390    3.8513 H       1  UNL1        0.0000
     29 H           1.5129    0.4960    6.9829 H       1  UNL1        0.0000
     30 H           2.9974    7.4813   10.9476 H       1  UNL1        0.0000
     31 H           4.0595    5.8771    7.6224 H       1  UNL1        0.0000
     32 H           4.1622    4.8156    4.8177 H       1  UNL1        0.0000
     33 H           5.5587    3.9250    5.3853 H       1  UNL1        0.0000
     34 H           4.8242    3.5095    3.8529 H       1  UNL1        0.0000
     35 H           3.9836    0.1955    6.4796 H       1  UNL1        0.0000
     36 H           4.6224    0.5131    4.8743 H       1  UNL1        0.0000
     37 H           5.4437    1.1328    6.2859 H       1  UNL1        0.0000
     38 H           5.9388    3.9704    8.0867 H       1  UNL1        0.0000
     39 H           6.0523    3.2910    9.7043 H       1  UNL1        0.0000
     40 H           6.0178    2.2416    8.3093 H       1  UNL1        0.0000
     41 H           2.3019    1.0802    9.6478 H       1  UNL1        0.0000
     42 H           3.8645    0.5259    9.0868 H       1  UNL1        0.0000
     43 H           3.7232    1.2953   10.6514 H       1  UNL1        0.0000
     44 H          -2.4356    1.3594    5.6242 H       1  UNL1        0.0000
     45 H          -2.3248    3.0101    5.0209 H       1  UNL1        0.0000
     46 H          -3.0174    1.7414    4.0025 H       1  UNL1        0.0000
     47 H           0.3011    2.3279    2.4382 H       1  UNL1        0.0000
     48 H          -1.4426    2.4743    2.2472 H       1  UNL1        0.0000
     49 H          -0.5741    3.6276    3.2611 H       1  UNL1        0.0000
     50 H          -0.9191    0.4847    7.6199 H       1  UNL1        0.0000
     51 H          -1.2569   -0.5490    6.2233 H       1  UNL1        0.0000
     52 H          -0.2281   -1.1350    7.5250 H       1  UNL1        0.0000
     53 H           2.2154   -0.4201    4.8075 H       1  UNL1        0.0000
     54 H           1.4340   -1.6737    5.7578 H       1  UNL1        0.0000
     55 H           0.5597   -0.9151    4.4356 H       1  UNL1        0.0000
     56 H           1.3181    8.5799    9.4229 H       1  UNL1        0.0000
     57 H           0.0621    7.5561   10.1145 H       1  UNL1        0.0000
     58 H           0.8747    8.7618   11.1204 H       1  UNL1        0.0000
     59 H           2.3184    5.5709   12.3444 H       1  UNL1        0.0000
     60 H           1.3197    6.9651   12.7388 H       1  UNL1        0.0000
     61 H           0.6644    5.6789   11.7253 H       1  UNL1        0.0000
     62 H           2.6157    7.9604    7.3313 H       1  UNL1        0.0000
     63 H           3.5102    8.6977    8.6649 H       1  UNL1        0.0000
     64 H           4.3510    8.2530    7.1848 H       1  UNL1        0.0000
     65 H           5.3774    5.6676    9.7152 H       1  UNL1        0.0000
     66 H           5.9323    7.0265    8.7485 H       1  UNL1        0.0000
     67 H           4.9500    7.3185   10.1751 H       1  UNL1        0.0000
@<TRIPOS>BOND
     1    48    17    1
     2    47    17    1
     3    17    49    1
     4    17     8    1
     5    28     8    1
     6    34    12    1
     7    24     6    1
     8    46    16    1
     9    25     6    1
    10     8    16    1
    11     8     1    1
    12    55    19    1
    13     6     1    1
    14     6     3    1
    15    16    45    1
    16    16    44    1
    17    53    19    1
    18    32    12    1
    19    12    33    1
    20    12     3    1
    21    36    13    1
    22    19    54    1
    23    19     9    1
    24     1     9    1
    25     3    13    1
    26     3     5    1
    27    13    37    1
    28    13    35    1
    29    51    18    1
    30     9    18    1
    31     9    29    1
    32    18    52    1
    33    18    50    1
    34    64    22    1
    35     5     4    1
    36    62    22    1
    37    31    11    1
    38    22    11    1
    39    22    63    1
    40    38    14    1
    41    40    14    1
    42    11     2    1
    43    11    23    1
    44    14     4    1
    45    14    39    1
    46    66    23    1
    47     4    15    1
    48     4     7    1
    49    42    15    1
    50     2     7    1
    51     2    10    1
    52    23    65    1
    53    23    67    1
    54    56    20    1
    55    15    41    1
    56    15    43    1
    57     7    27    1
    58     7    26    1
    59    57    20    1
    60    20    10    1
    61    20    58    1
    62    10    30    1
    63    10    21    1
    64    61    21    1
    65    21    59    1
    66    21    60    1
