@<TRIPOS>MOLECULE
1,2,3
 87 91 0 0 0
SMALL
GASTEIGER

@<TRIPOS>ATOM
      1 P           1.8730    4.0733    5.6153 P.3     1  UNL1        0.0000
      2 P           3.9014    3.0196    7.6982 P.3     1  UNL1        0.0000
      3 N           3.9892    2.6511    4.6896 N.pl3   1  UNL1        0.0000
      4 SI          4.6711    4.1497    5.0390 Si      1  UNL1        0.0000
      5 C           4.3304    1.6108    3.8408 C.ar    1  UNL1        0.0000
      6 C           5.1791    0.5701    4.2720 C.ar    1  UNL1        0.0000
      7 C           5.5446   -0.4242    3.3793 C.ar    1  UNL1        0.0000
      8 H           6.2156   -1.2083    3.6972 H       1  UNL1        0.0000
      9 C           5.0777   -0.4244    2.0787 C.ar    1  UNL1        0.0000
     10 H           5.3795   -1.2031    1.3933 H       1  UNL1        0.0000
     11 C           4.2234    0.5784    1.6599 C.ar    1  UNL1        0.0000
     12 H           3.8627    0.5734    0.6420 H       1  UNL1        0.0000
     13 C           3.8333    1.5900    2.5205 C.ar    1  UNL1        0.0000
     14 C           5.7273    0.5655    5.6776 C.3     1  UNL1        0.0000
     15 H           5.1449    1.2914    6.2664 H       1  UNL1        0.0000
     16 C           5.5854   -0.7975    6.3517 C.3     1  UNL1        0.0000
     17 H           4.5440   -1.1122    6.3467 H       1  UNL1        0.0000
     18 H           5.9248   -0.7358    7.3835 H       1  UNL1        0.0000
     19 H           6.1780   -1.5556    5.8457 H       1  UNL1        0.0000
     20 C           7.1872    1.0213    5.6739 C.3     1  UNL1        0.0000
     21 H           7.8032    0.3171    5.1184 H       1  UNL1        0.0000
     22 H           7.5657    1.0835    6.6931 H       1  UNL1        0.0000
     23 H           7.2758    1.9990    5.2048 H       1  UNL1        0.0000
     24 C           2.9127    2.6850    2.0443 C.3     1  UNL1        0.0000
     25 H           2.5699    3.2285    2.9327 H       1  UNL1        0.0000
     26 C           1.6884    2.1305    1.3170 C.3     1  UNL1        0.0000
     27 H           0.9706    2.9280    1.1355 H       1  UNL1        0.0000
     28 H           1.2041    1.3630    1.9159 H       1  UNL1        0.0000
     29 H           1.9631    1.6978    0.3580 H       1  UNL1        0.0000
     30 C           3.6672    3.6654    1.1448 C.3     1  UNL1        0.0000
     31 H           4.0395    3.1579    0.2572 H       1  UNL1        0.0000
     32 H           4.5125    4.0909    1.6784 H       1  UNL1        0.0000
     33 H           3.0073    4.4720    0.8303 H       1  UNL1        0.0000
     34 C           6.0994    4.7368    3.9387 C.3     1  UNL1        0.0000
     35 H           6.4762    3.9052    3.3582 H       1  UNL1        0.0000
     36 H           6.9167    5.1294    4.5299 H       1  UNL1        0.0000
     37 H           5.7821    5.5096    3.2511 H       1  UNL1        0.0000
     38 C           5.1870    4.0606    6.8973 C.3     1  UNL1        0.0000
     39 H           6.1308    3.5224    6.9860 H       1  UNL1        0.0000
     40 H           5.2937    5.0172    7.4039 H       1  UNL1        0.0000
     41 C           3.1064    5.2879    5.0345 C.3     1  UNL1        0.0000
     42 H           3.1673    6.1304    5.7194 H       1  UNL1        0.0000
     43 H           2.8561    5.6470    4.0381 H       1  UNL1        0.0000
     44 C           4.8969    2.1018    8.9438 C.ar    1  UNL1        0.0000
     45 C           4.6386    0.7640    9.2119 C.ar    1  UNL1        0.0000
     46 H           3.8551    0.2560    8.6692 H       1  UNL1        0.0000
     47 C           5.3773    0.0876   10.1683 C.ar    1  UNL1        0.0000
     48 H           5.1711   -0.9540   10.3688 H       1  UNL1        0.0000
     49 C           6.3783    0.7428   10.8638 C.ar    1  UNL1        0.0000
     50 H           6.9584    0.2148   11.6065 H       1  UNL1        0.0000
     51 C           6.6314    2.0820   10.6103 C.ar    1  UNL1        0.0000
     52 H           7.4052    2.5988   11.1600 H       1  UNL1        0.0000
     53 C           5.8931    2.7601    9.6596 C.ar    1  UNL1        0.0000
     54 H           6.0838    3.8080    9.4752 H       1  UNL1        0.0000
     55 C           3.0805    4.1226    8.9043 C.ar    1  UNL1        0.0000
     56 C           2.3890    3.4895    9.9363 C.ar    1  UNL1        0.0000
     57 H           2.3921    2.4083    9.9819 H       1  UNL1        0.0000
     58 C           1.7084    4.2269   10.8834 C.ar    1  UNL1        0.0000
     59 H           1.1829    3.7256   11.6831 H       1  UNL1        0.0000
     60 C           1.6966    5.6108   10.8061 C.ar    1  UNL1        0.0000
     61 H           1.1646    6.1912   11.5452 H       1  UNL1        0.0000
     62 C           2.3632    6.2468    9.7746 C.ar    1  UNL1        0.0000
     63 H           2.3479    7.3252    9.7052 H       1  UNL1        0.0000
     64 C           3.0487    5.5086    8.8257 C.ar    1  UNL1        0.0000
     65 H           3.5576    6.0239    8.0241 H       1  UNL1        0.0000
     66 C           0.7902    4.9498    6.8046 C.ar    1  UNL1        0.0000
     67 C           0.1139    4.1497    7.7186 C.ar    1  UNL1        0.0000
     68 H           0.3160    3.0845    7.7279 H       1  UNL1        0.0000
     69 C          -0.7829    4.7104    8.6069 C.ar    1  UNL1        0.0000
     70 H          -1.3005    4.0860    9.3200 H       1  UNL1        0.0000
     71 C          -1.0150    6.0760    8.5819 C.ar    1  UNL1        0.0000
     72 H          -1.7134    6.5184    9.2769 H       1  UNL1        0.0000
     73 C          -0.3537    6.8750    7.6647 C.ar    1  UNL1        0.0000
     74 H          -0.5403    7.9393    7.6425 H       1  UNL1        0.0000
     75 C           0.5437    6.3156    6.7731 C.ar    1  UNL1        0.0000
     76 H           1.0532    6.9455    6.0576 H       1  UNL1        0.0000
     77 C           0.5792    3.9423    4.3267 C.ar    1  UNL1        0.0000
     78 C           0.1206    5.0053    3.5587 C.ar    1  UNL1        0.0000
     79 H           0.5887    5.9762    3.6395 H       1  UNL1        0.0000
     80 C          -0.9389    4.8198    2.6890 C.ar    1  UNL1        0.0000
     81 H          -1.2909    5.6456    2.0873 H       1  UNL1        0.0000
     82 C          -1.5560    3.5829    2.5931 C.ar    1  UNL1        0.0000
     83 H          -2.3874    3.4467    1.9172 H       1  UNL1        0.0000
     84 C          -1.1059    2.5205    3.3606 C.ar    1  UNL1        0.0000
     85 H          -1.5857    1.5559    3.2832 H       1  UNL1        0.0000
     86 C          -0.0402    2.7007    4.2216 C.ar    1  UNL1        0.0000
     87 H           0.3363    1.8753    4.8230 H       1  UNL1        0.0000
@<TRIPOS>BOND
     1    31    30    1
     2    29    26    1
     3    12    11    1
     4    33    30    1
     5    27    26    1
     6    30    32    1
     7    30    24    1
     8    26    28    1
     9    26    24    1
    10    10     9    1
    11    11     9   ar
    12    11    13   ar
    13    83    82    1
    14    24    13    1
    15    24    25    1
    16     9     7   ar
    17    81    80    1
    18    13     5   ar
    19    82    80   ar
    20    82    84   ar
    21    80    78   ar
    22    37    34    1
    23    85    84    1
    24    35    34    1
    25    84    86   ar
    26     7     8    1
    27     7     6   ar
    28    78    79    1
    29    78    77   ar
    30     5     6   ar
    31     5     3    1
    32    34    36    1
    33    34     4    1
    34    43    41    1
    35    86    77   ar
    36    86    87    1
    37     6    14    1
    38    77     1    1
    39     3     4    1
    40    41     4    1
    41    41     1    1
    42    41    42    1
    43     4    38    1
    44    21    20    1
    45    23    20    1
    46     1    66    1
    47    20    14    1
    48    20    22    1
    49    14    15    1
    50    14    16    1
    51    19    16    1
    52    76    75    1
    53    17    16    1
    54    16    18    1
    55    75    66   ar
    56    75    73   ar
    57    66    67   ar
    58    38    39    1
    59    38    40    1
    60    38     2    1
    61    74    73    1
    62    73    71   ar
    63     2    55    1
    64     2    44    1
    65    67    68    1
    66    67    69   ar
    67    65    64    1
    68    71    69   ar
    69    71    72    1
    70    69    70    1
    71    46    45    1
    72    64    55   ar
    73    64    62   ar
    74    55    56   ar
    75    44    45   ar
    76    44    53   ar
    77    45    47   ar
    78    54    53    1
    79    53    51   ar
    80    63    62    1
    81    62    60   ar
    82    56    57    1
    83    56    58   ar
    84    47    48    1
    85    47    49   ar
    86    51    49   ar
    87    51    52    1
    88    60    58   ar
    89    60    61    1
    90    49    50    1
    91    58    59    1
