@<TRIPOS>MOLECULE
1,2,5
 71 74 0 0 0
SMALL
GASTEIGER

@<TRIPOS>ATOM
      1 P           5.5037   11.7963   13.1590 P.3     1  UNL1        0.0000
      2 P           9.4585   13.9645   13.2406 P.3     1  UNL1        0.0000
      3 SI          5.5700   13.4489   15.5266 Si      1  UNL1        0.0000
      4 SI          8.4836   14.0903   15.9920 Si      1  UNL1        0.0000
      5 N           7.2169   13.4278   15.0368 N.3     1  UNL1        0.0000
      6 C           4.8429   11.8003   14.8488 C.3     1  UNL1        0.0000
      7 C          10.0867   13.9504   14.9349 C.3     1  UNL1        0.0000
      8 C           5.2578   13.5098   17.4007 C.3     1  UNL1        0.0000
      9 C           4.5663   14.8770   14.7283 C.3     1  UNL1        0.0000
     10 C           8.8217   13.1372   17.6132 C.3     1  UNL1        0.0000
     11 C           8.2523   15.9350   16.4464 C.3     1  UNL1        0.0000
     12 C           5.5083   10.0330   12.6910 C.ar    1  UNL1        0.0000
     13 C           6.6124    9.3314   13.1720 C.ar    1  UNL1        0.0000
     14 C           6.7540    7.9831   12.9126 C.ar    1  UNL1        0.0000
     15 C           5.7955    7.3257   12.1555 C.ar    1  UNL1        0.0000
     16 C           4.7088    8.0225   11.6559 C.ar    1  UNL1        0.0000
     17 C           4.5618    9.3746   11.9192 C.ar    1  UNL1        0.0000
     18 C           4.1758   12.5266   12.1509 C.ar    1  UNL1        0.0000
     19 C           2.8338   12.1921   12.2981 C.ar    1  UNL1        0.0000
     20 C           1.8761   12.7934   11.5012 C.ar    1  UNL1        0.0000
     21 C           2.2476   13.7348   10.5549 C.ar    1  UNL1        0.0000
     22 C           3.5819   14.0761   10.4042 C.ar    1  UNL1        0.0000
     23 C           4.5402   13.4730   11.1981 C.ar    1  UNL1        0.0000
     24 C          10.9007   13.7902   12.1376 C.ar    1  UNL1        0.0000
     25 C          12.1535   13.3721   12.5655 C.ar    1  UNL1        0.0000
     26 C          13.1914   13.2459   11.6575 C.ar    1  UNL1        0.0000
     27 C          12.9848   13.5318   10.3192 C.ar    1  UNL1        0.0000
     28 C          11.7339   13.9426    9.8837 C.ar    1  UNL1        0.0000
     29 C          10.6977   14.0666   10.7874 C.ar    1  UNL1        0.0000
     30 C           9.0786   15.7257   12.9760 C.ar    1  UNL1        0.0000
     31 C           7.7475   16.0811   12.7896 C.ar    1  UNL1        0.0000
     32 C           7.3968   17.4079   12.6206 C.ar    1  UNL1        0.0000
     33 C           8.3790   18.3857   12.6311 C.ar    1  UNL1        0.0000
     34 C           9.7087   18.0352   12.8063 C.ar    1  UNL1        0.0000
     35 C          10.0609   16.7086   12.9770 C.ar    1  UNL1        0.0000
     36 H           5.2702   10.9499   15.3797 H       1  UNL1        0.0000
     37 H           3.7587   11.7280   14.8709 H       1  UNL1        0.0000
     38 H          10.8047   14.7520   15.1029 H       1  UNL1        0.0000
     39 H          10.5654   12.9879   15.1137 H       1  UNL1        0.0000
     40 H           4.1976   13.5157   17.6269 H       1  UNL1        0.0000
     41 H           5.6869   14.4158   17.8089 H       1  UNL1        0.0000
     42 H           5.7059   12.6701   17.9171 H       1  UNL1        0.0000
     43 H           3.5202   14.8443   15.0184 H       1  UNL1        0.0000
     44 H           4.6067   14.8297   13.6430 H       1  UNL1        0.0000
     45 H           4.9633   15.8398   15.0340 H       1  UNL1        0.0000
     46 H           9.7806   13.4077   18.0437 H       1  UNL1        0.0000
     47 H           8.8145   12.0629   17.4632 H       1  UNL1        0.0000
     48 H           8.0576   13.3721   18.3431 H       1  UNL1        0.0000
     49 H           9.0555   16.2913   17.0836 H       1  UNL1        0.0000
     50 H           7.3227   16.0628   16.9900 H       1  UNL1        0.0000
     51 H           8.2115   16.5751   15.5709 H       1  UNL1        0.0000
     52 H           7.3635    9.8773   13.7412 H       1  UNL1        0.0000
     53 H           7.6107    7.4427   13.2883 H       1  UNL1        0.0000
     54 H           5.9029    6.2716   11.9456 H       1  UNL1        0.0000
     55 H           3.9718    7.5117   11.0528 H       1  UNL1        0.0000
     56 H           3.7192    9.9150   11.5119 H       1  UNL1        0.0000
     57 H           2.5352   11.4608   13.0365 H       1  UNL1        0.0000
     58 H           0.8350   12.5283   11.6185 H       1  UNL1        0.0000
     59 H           1.4960   14.2033    9.9367 H       1  UNL1        0.0000
     60 H           3.8724   14.8122    9.6688 H       1  UNL1        0.0000
     61 H           5.5917   13.7301   11.0960 H       1  UNL1        0.0000
     62 H          12.3210   13.1453   13.6086 H       1  UNL1        0.0000
     63 H          14.1652   12.9220   11.9964 H       1  UNL1        0.0000
     64 H          13.7966   13.4315    9.6138 H       1  UNL1        0.0000
     65 H          11.5702   14.1617    8.8386 H       1  UNL1        0.0000
     66 H           9.7139   14.3813   10.4608 H       1  UNL1        0.0000
     67 H           6.9941   15.2912   12.7959 H       1  UNL1        0.0000
     68 H           6.3612   17.6824   12.4816 H       1  UNL1        0.0000
     69 H           8.1098   19.4236   12.5001 H       1  UNL1        0.0000
     70 H          10.4716   18.8004   12.8096 H       1  UNL1        0.0000
     71 H          11.0986   16.4313   13.1065 H       1  UNL1        0.0000
@<TRIPOS>BOND
     1    65    28    1
     2    64    27    1
     3    60    22    1
     4    28    27   ar
     5    28    29   ar
     6    59    21    1
     7    27    26   ar
     8    22    21   ar
     9    22    23   ar
    10    66    29    1
    11    21    20   ar
    12    29    24   ar
    13    55    16    1
    14    61    23    1
    15    23    18   ar
    16    20    58    1
    17    20    19   ar
    18    56    17    1
    19    16    17   ar
    20    16    15   ar
    21    26    63    1
    22    26    25   ar
    23    17    12   ar
    24    54    15    1
    25    24    25   ar
    26    24     2    1
    27    18    19   ar
    28    18     1    1
    29    15    14   ar
    30    19    57    1
    31    68    32    1
    32    69    33    1
    33    25    62    1
    34    32    33   ar
    35    32    31   ar
    36    33    34   ar
    37    12     1    1
    38    12    13   ar
    39    31    67    1
    40    31    30   ar
    41    34    70    1
    42    34    35   ar
    43    14    13   ar
    44    14    53    1
    45    30    35   ar
    46    30     2    1
    47    35    71    1
    48     1     6    1
    49    13    52    1
    50     2     7    1
    51    44     9    1
    52     9    43    1
    53     9    45    1
    54     9     3    1
    55     6    37    1
    56     6    36    1
    57     6     3    1
    58     7    38    1
    59     7    39    1
    60     7     4    1
    61     5     3    1
    62     5     4    1
    63     3     8    1
    64    51    11    1
    65     4    11    1
    66     4    10    1
    67    11    50    1
    68    11    49    1
    69     8    40    1
    70     8    41    1
    71     8    42    1
    72    47    10    1
    73    10    46    1
    74    10    48    1
