@<TRIPOS>MOLECULE
1,2,5
 71 74 0 0 0
SMALL
GASTEIGER

@<TRIPOS>ATOM
      1 P          -0.5075    2.1981   21.9177 P.3     1  UNL1        0.0000
      2 P          -4.6561    1.9814   20.2503 P.3     1  UNL1        0.0000
      3 SI         -0.3719    1.4593   19.0822 Si      1  UNL1        0.0000
      4 SI         -2.9980   -0.0116   18.8925 Si      1  UNL1        0.0000
      5 N          -1.9553    1.1214   19.6498 N.3     1  UNL1        0.0000
      6 C           0.5517    2.4259   20.4685 C.3     1  UNL1        0.0000
      7 C          -4.7302    0.2586   19.6846 C.3     1  UNL1        0.0000
      8 C          -0.3152    2.5776   17.5268 C.3     1  UNL1        0.0000
      9 C           0.6574   -0.1042   18.7121 C.3     1  UNL1        0.0000
     10 C          -3.1765    0.2197   17.0036 C.3     1  UNL1        0.0000
     11 C          -2.5372   -1.8458   19.1780 C.3     1  UNL1        0.0000
     12 C          -0.0885    0.5008   22.4299 C.ar    1  UNL1        0.0000
     13 C          -1.0765   -0.4743   22.3888 C.ar    1  UNL1        0.0000
     14 C          -0.7868   -1.7772   22.7516 C.ar    1  UNL1        0.0000
     15 C           0.4944   -2.1112   23.1580 C.ar    1  UNL1        0.0000
     16 C           1.4830   -1.1407   23.2059 C.ar    1  UNL1        0.0000
     17 C           1.1935    0.1627   22.8476 C.ar    1  UNL1        0.0000
     18 C           0.3038    3.1154   23.2766 C.ar    1  UNL1        0.0000
     19 C           1.2575    4.1028   23.0678 C.ar    1  UNL1        0.0000
     20 C           1.8060    4.7815   24.1417 C.ar    1  UNL1        0.0000
     21 C           1.4018    4.4889   25.4324 C.ar    1  UNL1        0.0000
     22 C           0.4511    3.5045   25.6499 C.ar    1  UNL1        0.0000
     23 C          -0.0915    2.8221   24.5791 C.ar    1  UNL1        0.0000
     24 C          -4.8677    2.9017   18.6995 C.ar    1  UNL1        0.0000
     25 C          -5.9009    2.6727   17.7977 C.ar    1  UNL1        0.0000
     26 C          -5.9491    3.3778   16.6088 C.ar    1  UNL1        0.0000
     27 C          -4.9661    4.3076   16.3081 C.ar    1  UNL1        0.0000
     28 C          -3.9272    4.5313   17.1968 C.ar    1  UNL1        0.0000
     29 C          -3.8817    3.8295   18.3866 C.ar    1  UNL1        0.0000
     30 C          -6.2332    2.1706   21.1480 C.ar    1  UNL1        0.0000
     31 C          -7.3254    2.9132   20.7232 C.ar    1  UNL1        0.0000
     32 C          -8.4780    2.9460   21.4898 C.ar    1  UNL1        0.0000
     33 C          -8.5444    2.2539   22.6863 C.ar    1  UNL1        0.0000
     34 C          -7.4456    1.5357   23.1319 C.ar    1  UNL1        0.0000
     35 C          -6.2972    1.4999   22.3670 C.ar    1  UNL1        0.0000
     36 H           1.5630    2.0687   20.6581 H       1  UNL1        0.0000
     37 H           0.5848    3.4885   20.2295 H       1  UNL1        0.0000
     38 H          -5.5642    0.1000   19.0029 H       1  UNL1        0.0000
     39 H          -4.8695   -0.3784   20.5583 H       1  UNL1        0.0000
     40 H           0.7075    2.7832   17.2271 H       1  UNL1        0.0000
     41 H          -0.8153    3.5286   17.6778 H       1  UNL1        0.0000
     42 H          -0.8069    2.0809   16.6993 H       1  UNL1        0.0000
     43 H           1.6829    0.1433   18.4584 H       1  UNL1        0.0000
     44 H           0.2293   -0.6309   17.8674 H       1  UNL1        0.0000
     45 H           0.6747   -0.7861   19.5560 H       1  UNL1        0.0000
     46 H          -3.9384   -0.4336   16.5904 H       1  UNL1        0.0000
     47 H          -2.2381   -0.0260   16.5190 H       1  UNL1        0.0000
     48 H          -3.4305    1.2403   16.7371 H       1  UNL1        0.0000
     49 H          -3.3044   -2.5086   18.7905 H       1  UNL1        0.0000
     50 H          -2.3868   -2.0842   20.2246 H       1  UNL1        0.0000
     51 H          -1.6148   -2.0735   18.6587 H       1  UNL1        0.0000
     52 H          -2.0707   -0.1959   22.0451 H       1  UNL1        0.0000
     53 H          -1.5566   -2.5352   22.7214 H       1  UNL1        0.0000
     54 H           0.7244   -3.1284   23.4403 H       1  UNL1        0.0000
     55 H           2.4812   -1.4033   23.5260 H       1  UNL1        0.0000
     56 H           1.9605    0.9244   22.8963 H       1  UNL1        0.0000
     57 H           1.5756    4.3447   22.0647 H       1  UNL1        0.0000
     58 H           2.5500    5.5457   23.9690 H       1  UNL1        0.0000
     59 H           1.8272    5.0252   26.2679 H       1  UNL1        0.0000
     60 H           0.1321    3.2693   26.6551 H       1  UNL1        0.0000
     61 H          -0.8256    2.0450   24.7467 H       1  UNL1        0.0000
     62 H          -6.6635    1.9391   18.0210 H       1  UNL1        0.0000
     63 H          -6.7529    3.1987   15.9089 H       1  UNL1        0.0000
     64 H          -5.0075    4.8518   15.3759 H       1  UNL1        0.0000
     65 H          -3.1559    5.2484   16.9555 H       1  UNL1        0.0000
     66 H          -3.0630    3.9665   19.0898 H       1  UNL1        0.0000
     67 H          -7.2742    3.4763   19.8029 H       1  UNL1        0.0000
     68 H          -9.3282    3.5202   21.1511 H       1  UNL1        0.0000
     69 H          -9.4473    2.2824   23.2785 H       1  UNL1        0.0000
     70 H          -7.4861    1.0102   24.0753 H       1  UNL1        0.0000
     71 H          -5.4250    0.9523   22.7088 H       1  UNL1        0.0000
@<TRIPOS>BOND
     1    64    27    1
     2    63    26    1
     3    27    26   ar
     4    27    28   ar
     5    47    10    1
     6    46    10    1
     7    26    25   ar
     8    42     8    1
     9    48    10    1
    10    65    28    1
    11    10     4    1
    12    28    29   ar
    13    40     8    1
    14     8    41    1
    15     8     3    1
    16    25    62    1
    17    25    24   ar
    18    44     9    1
    19    29    24   ar
    20    29    66    1
    21    43     9    1
    22    51    11    1
    23    24     2    1
    24     9     3    1
    25     9    45    1
    26    49    11    1
    27     4    11    1
    28     4     5    1
    29     4     7    1
    30    38     7    1
    31     3     5    1
    32     3     6    1
    33    11    50    1
    34     7     2    1
    35     7    39    1
    36    67    31    1
    37    37     6    1
    38     2    30    1
    39     6    36    1
    40     6     1    1
    41    31    30   ar
    42    31    32   ar
    43    30    35   ar
    44    68    32    1
    45    32    33   ar
    46     1    12    1
    47     1    18    1
    48    52    13    1
    49    57    19    1
    50    35    71    1
    51    35    34   ar
    52    13    12   ar
    53    13    14   ar
    54    12    17   ar
    55    33    34   ar
    56    33    69    1
    57    53    14    1
    58    14    15   ar
    59    17    56    1
    60    17    16   ar
    61    19    18   ar
    62    19    20   ar
    63    34    70    1
    64    15    16   ar
    65    15    54    1
    66    16    55    1
    67    18    23   ar
    68    58    20    1
    69    20    21   ar
    70    23    61    1
    71    23    22   ar
    72    21    22   ar
    73    21    59    1
    74    22    60    1
