@<TRIPOS>MOLECULE
1,2,5
 67 66 0 0 0
SMALL
GASTEIGER

@<TRIPOS>ATOM
      1 P           3.2828    1.1609    3.7494 P.3     1  UNL1        0.0000
      2 P           0.6363    3.9900    1.3000 P.3     1  UNL1        0.0000
      3 SI          0.4922    1.1128    4.8681 Si      1  UNL1        0.0000
      4 SI         -1.0813    1.7724    2.4287 Si      1  UNL1        0.0000
      5 N           0.3972    1.7855    3.2932 N.3     1  UNL1        0.0000
      6 C           2.2795    0.4666    5.1025 C.3     1  UNL1        0.0000
      7 C          -0.8252    2.9623    0.9563 C.3     1  UNL1        0.0000
      8 C           0.2012    2.3681    6.2916 C.3     1  UNL1        0.0000
      9 C          -0.6660   -0.3644    5.2131 C.3     1  UNL1        0.0000
     10 C          -2.6267    2.2960    3.4337 C.3     1  UNL1        0.0000
     11 C          -1.5434    0.0832    1.6497 C.3     1  UNL1        0.0000
     12 C           3.5558   -0.3753    2.7185 C.3     1  UNL1        0.0000
     13 C           2.2403   -0.6397    1.9934 C.3     1  UNL1        0.0000
     14 C           4.6868   -0.2705    1.6998 C.3     1  UNL1        0.0000
     15 C           4.9359    1.4245    4.6115 C.3     1  UNL1        0.0000
     16 C           4.7406    2.4520    5.7304 C.3     1  UNL1        0.0000
     17 C           5.5595    0.1494    5.1689 C.3     1  UNL1        0.0000
     18 C           0.8685    4.8163   -0.3859 C.3     1  UNL1        0.0000
     19 C           1.0999    3.7195   -1.4277 C.3     1  UNL1        0.0000
     20 C          -0.2439    5.7470   -0.8547 C.3     1  UNL1        0.0000
     21 C           0.0024    5.3980    2.3695 C.3     1  UNL1        0.0000
     22 C          -1.4872    5.7163    2.2845 C.3     1  UNL1        0.0000
     23 C           0.3529    5.0928    3.8258 C.3     1  UNL1        0.0000
     24 H           2.6691    0.8240    6.0509 H       1  UNL1        0.0000
     25 H           2.3353   -0.6203    5.0966 H       1  UNL1        0.0000
     26 H          -0.5861    2.3600    0.0826 H       1  UNL1        0.0000
     27 H          -1.6942    3.5713    0.7224 H       1  UNL1        0.0000
     28 H           0.3205    1.8935    7.2612 H       1  UNL1        0.0000
     29 H          -0.8058    2.7688    6.2501 H       1  UNL1        0.0000
     30 H           0.8929    3.2034    6.2438 H       1  UNL1        0.0000
     31 H          -0.5063   -0.7670    6.2081 H       1  UNL1        0.0000
     32 H          -0.5284   -1.1721    4.5024 H       1  UNL1        0.0000
     33 H          -1.6989   -0.0461    5.1510 H       1  UNL1        0.0000
     34 H          -3.4349    2.6444    2.7976 H       1  UNL1        0.0000
     35 H          -2.4106    3.0723    4.1599 H       1  UNL1        0.0000
     36 H          -2.9980    1.4395    3.9845 H       1  UNL1        0.0000
     37 H          -2.4376    0.1627    1.0386 H       1  UNL1        0.0000
     38 H          -1.7443   -0.6455    2.4258 H       1  UNL1        0.0000
     39 H          -0.7491   -0.3122    1.0251 H       1  UNL1        0.0000
     40 H           3.7705   -1.2019    3.4077 H       1  UNL1        0.0000
     41 H           2.3278   -1.4973    1.3268 H       1  UNL1        0.0000
     42 H           1.9698    0.2451    1.4061 H       1  UNL1        0.0000
     43 H           1.4341   -0.8203    2.6999 H       1  UNL1        0.0000
     44 H           4.8486   -1.2412    1.2305 H       1  UNL1        0.0000
     45 H           5.6239    0.0408    2.1571 H       1  UNL1        0.0000
     46 H           4.4248    0.4391    0.9192 H       1  UNL1        0.0000
     47 H           5.6171    1.8528    3.8668 H       1  UNL1        0.0000
     48 H           5.6663    2.9901    5.9298 H       1  UNL1        0.0000
     49 H           4.4367    1.9630    6.6534 H       1  UNL1        0.0000
     50 H           3.9664    3.1732    5.4656 H       1  UNL1        0.0000
     51 H           6.4479    0.3984    5.7492 H       1  UNL1        0.0000
     52 H           5.8563   -0.5347    4.3783 H       1  UNL1        0.0000
     53 H           4.8604   -0.3638    5.8258 H       1  UNL1        0.0000
     54 H           1.7772    5.4230   -0.3031 H       1  UNL1        0.0000
     55 H           1.6802    4.0962   -2.2692 H       1  UNL1        0.0000
     56 H           0.1488    3.3594   -1.8138 H       1  UNL1        0.0000
     57 H           1.6308    2.8749   -0.9886 H       1  UNL1        0.0000
     58 H          -0.0245    6.0847   -1.8682 H       1  UNL1        0.0000
     59 H          -0.3216    6.6270   -0.2217 H       1  UNL1        0.0000
     60 H          -1.2023    5.2337   -0.8769 H       1  UNL1        0.0000
     61 H           0.5758    6.2776    2.0451 H       1  UNL1        0.0000
     62 H          -1.7062    6.5720    2.9239 H       1  UNL1        0.0000
     63 H          -2.0713    4.8731    2.6403 H       1  UNL1        0.0000
     64 H          -1.8095    5.9630    1.2779 H       1  UNL1        0.0000
     65 H           0.2436    5.9828    4.4458 H       1  UNL1        0.0000
     66 H           1.3790    4.7189    3.9134 H       1  UNL1        0.0000
     67 H          -0.3064    4.3169    4.2047 H       1  UNL1        0.0000
@<TRIPOS>BOND
     1    55    19    1
     2    58    20    1
     3    56    19    1
     4    19    57    1
     5    19    18    1
     6    60    20    1
     7    20    18    1
     8    20    59    1
     9    18    54    1
    10    18     2    1
    11    26     7    1
    12    27     7    1
    13    46    14    1
    14     7     2    1
    15     7     4    1
    16    39    11    1
    17    37    11    1
    18    44    14    1
    19    64    22    1
    20     2    21    1
    21    41    13    1
    22    42    13    1
    23    11    38    1
    24    11     4    1
    25    14    45    1
    26    14    12    1
    27    13    43    1
    28    13    12    1
    29    61    21    1
    30    22    21    1
    31    22    63    1
    32    22    62    1
    33    21    23    1
    34     4     5    1
    35     4    10    1
    36    12    40    1
    37    12     1    1
    38    34    10    1
    39     5     3    1
    40    10    36    1
    41    10    35    1
    42     1    15    1
    43     1     6    1
    44    23    66    1
    45    23    67    1
    46    23    65    1
    47    47    15    1
    48    52    17    1
    49    32     9    1
    50    15    17    1
    51    15    16    1
    52     3     6    1
    53     3     9    1
    54     3     8    1
    55    25     6    1
    56     6    24    1
    57    33     9    1
    58    17    51    1
    59    17    53    1
    60     9    31    1
    61    50    16    1
    62    16    48    1
    63    16    49    1
    64    30     8    1
    65    29     8    1
    66     8    28    1
