@<TRIPOS>MOLECULE
1,2,5
 79 78 0 0 0
SMALL
GASTEIGER

@<TRIPOS>ATOM
      1 P           5.9487    1.1955    3.5320 P.3     1  UNL1        0.0000
      2 P           7.7393   -2.1934    5.8763 P.3     1  UNL1        0.0000
      3 SI          5.8387   -1.2394    1.7200 Si      1  UNL1        0.0000
      4 SI          8.4325   -2.3277    3.0027 Si      1  UNL1        0.0000
      5 N           6.9862   -1.4278    2.9650 N.3     1  UNL1        0.0000
      6 C           4.4501   -2.5603    1.7219 C.3     1  UNL1        0.0000
      7 H           4.8765   -3.5560    1.6633 H       1  UNL1        0.0000
      8 H           3.8031   -2.4343    0.8593 H       1  UNL1        0.0000
      9 H           3.8277   -2.5205    2.6094 H       1  UNL1        0.0000
     10 C           6.5293   -1.2437   -0.0600 C.3     1  UNL1        0.0000
     11 H           6.6020   -2.2661   -0.4115 H       1  UNL1        0.0000
     12 H           7.5180   -0.8058   -0.1236 H       1  UNL1        0.0000
     13 H           5.8791   -0.7098   -0.7457 H       1  UNL1        0.0000
     14 C           5.0161    0.4402    2.1501 C.3     1  UNL1        0.0000
     15 H           4.9442    1.1266    1.3099 H       1  UNL1        0.0000
     16 H           4.0068    0.2350    2.4986 H       1  UNL1        0.0000
     17 C           7.1136    2.4184    2.6811 C.3     1  UNL1        0.0000
     18 C           6.4650    3.6580    2.0715 C.3     1  UNL1        0.0000
     19 H           7.2110    4.2064    1.4955 H       1  UNL1        0.0000
     20 H           6.0796    4.3279    2.8351 H       1  UNL1        0.0000
     21 H           5.6564    3.3870    1.3953 H       1  UNL1        0.0000
     22 C           7.8140    1.6247    1.5767 C.3     1  UNL1        0.0000
     23 H           8.7064    2.1545    1.2439 H       1  UNL1        0.0000
     24 H           7.1636    1.4863    0.7178 H       1  UNL1        0.0000
     25 H           8.1044    0.6450    1.9517 H       1  UNL1        0.0000
     26 C           8.1649    2.8162    3.7184 C.3     1  UNL1        0.0000
     27 H           8.9162    3.4657    3.2701 H       1  UNL1        0.0000
     28 H           8.6634    1.9217    4.0976 H       1  UNL1        0.0000
     29 H           7.7229    3.3338    4.5645 H       1  UNL1        0.0000
     30 C           4.5704    2.1257    4.4657 C.3     1  UNL1        0.0000
     31 C           3.9187    1.0193    5.3043 C.3     1  UNL1        0.0000
     32 H           3.0873    1.4192    5.8831 H       1  UNL1        0.0000
     33 H           4.6495    0.6066    5.9994 H       1  UNL1        0.0000
     34 H           3.5373    0.2151    4.6752 H       1  UNL1        0.0000
     35 C           5.1331    3.1786    5.4187 C.3     1  UNL1        0.0000
     36 H           4.3409    3.5288    6.0803 H       1  UNL1        0.0000
     37 H           5.5198    4.0407    4.8817 H       1  UNL1        0.0000
     38 H           5.9219    2.7556    6.0347 H       1  UNL1        0.0000
     39 C           3.5103    2.7725    3.5727 C.3     1  UNL1        0.0000
     40 H           2.7460    3.2224    4.2067 H       1  UNL1        0.0000
     41 H           3.0185    2.0484    2.9288 H       1  UNL1        0.0000
     42 H           3.9296    3.5575    2.9520 H       1  UNL1        0.0000
     43 C           9.8448   -1.0567    3.2570 C.3     1  UNL1        0.0000
     44 H          10.0688   -0.5091    2.3478 H       1  UNL1        0.0000
     45 H          10.7724   -1.5036    3.5982 H       1  UNL1        0.0000
     46 H           9.5215   -0.3328    4.0124 H       1  UNL1        0.0000
     47 C           8.7834   -3.4647    1.5262 C.3     1  UNL1        0.0000
     48 H           8.9932   -2.8777    0.6425 H       1  UNL1        0.0000
     49 H           7.9269   -4.0912    1.3103 H       1  UNL1        0.0000
     50 H           9.6353   -4.1090    1.7103 H       1  UNL1        0.0000
     51 C           8.3837   -3.3625    4.6193 C.3     1  UNL1        0.0000
     52 H           7.7452   -4.2365    4.5268 H       1  UNL1        0.0000
     53 H           9.3804   -3.6998    4.8867 H       1  UNL1        0.0000
     54 C           9.0141   -2.3140    7.2847 C.3     1  UNL1        0.0000
     55 C           9.4398   -3.7393    7.6366 C.3     1  UNL1        0.0000
     56 H          10.2369   -3.6951    8.3787 H       1  UNL1        0.0000
     57 H           9.8202   -4.2852    6.7773 H       1  UNL1        0.0000
     58 H           8.6185   -4.3057    8.0649 H       1  UNL1        0.0000
     59 C          10.2191   -1.5318    6.7545 C.3     1  UNL1        0.0000
     60 H          11.0115   -1.5060    7.5016 H       1  UNL1        0.0000
     61 H           9.9257   -0.5058    6.5361 H       1  UNL1        0.0000
     62 H          10.6211   -1.9849    5.8510 H       1  UNL1        0.0000
     63 C           8.5164   -1.6171    8.5506 C.3     1  UNL1        0.0000
     64 H           9.3586   -1.4370    9.2183 H       1  UNL1        0.0000
     65 H           7.7993   -2.2325    9.0857 H       1  UNL1        0.0000
     66 H           8.0628   -0.6590    8.3123 H       1  UNL1        0.0000
     67 C           6.0791   -2.9441    6.4247 C.3     1  UNL1        0.0000
     68 C           5.2191   -2.7750    5.1677 C.3     1  UNL1        0.0000
     69 H           4.2092   -3.1459    5.3422 H       1  UNL1        0.0000
     70 H           5.6424   -3.3006    4.3160 H       1  UNL1        0.0000
     71 H           5.1570   -1.7101    4.8984 H       1  UNL1        0.0000
     72 C           5.4535   -2.0856    7.5278 C.3     1  UNL1        0.0000
     73 H           4.3707   -2.2084    7.5249 H       1  UNL1        0.0000
     74 H           5.6806   -1.0321    7.3704 H       1  UNL1        0.0000
     75 H           5.8128   -2.3678    8.5124 H       1  UNL1        0.0000
     76 C           6.0982   -4.4098    6.8495 C.3     1  UNL1        0.0000
     77 H           5.0761   -4.7845    6.9053 H       1  UNL1        0.0000
     78 H           6.5463   -4.5294    7.8325 H       1  UNL1        0.0000
     79 H           6.6440   -5.0310    6.1432 H       1  UNL1        0.0000
@<TRIPOS>BOND
     1    13    10    1
     2    11    10    1
     3    12    10    1
     4    10     3    1
     5    48    47    1
     6    24    22    1
     7     8     6    1
     8    23    22    1
     9    15    14    1
    10    49    47    1
    11    21    18    1
    12    19    18    1
    13    47    50    1
    14    47     4    1
    15    22    25    1
    16    22    17    1
    17     7     6    1
    18     3     6    1
    19     3    14    1
    20     3     5    1
    21     6     9    1
    22    18    17    1
    23    18    20    1
    24    14    16    1
    25    14     1    1
    26    44    43    1
    27    17     1    1
    28    17    26    1
    29    41    39    1
    30    42    39    1
    31     5     4    1
    32     4    43    1
    33     4    51    1
    34    43    45    1
    35    43    46    1
    36    27    26    1
    37     1    30    1
    38    39    40    1
    39    39    30    1
    40    26    28    1
    41    26    29    1
    42    70    68    1
    43    30    31    1
    44    30    35    1
    45    52    51    1
    46    51    53    1
    47    51     2    1
    48    34    31    1
    49    37    35    1
    50    71    68    1
    51    68    69    1
    52    68    67    1
    53    31    32    1
    54    31    33    1
    55    35    38    1
    56    35    36    1
    57    62    59    1
    58     2    67    1
    59     2    54    1
    60    79    76    1
    61    67    76    1
    62    67    72    1
    63    61    59    1
    64    59    54    1
    65    59    60    1
    66    57    55    1
    67    76    77    1
    68    76    78    1
    69    54    55    1
    70    54    63    1
    71    74    72    1
    72    73    72    1
    73    72    75    1
    74    55    58    1
    75    55    56    1
    76    66    63    1
    77    63    65    1
    78    63    64    1
