@<TRIPOS>MOLECULE
1,2,5
 79 78 0 0 0
SMALL
GASTEIGER

@<TRIPOS>ATOM
      1 P          12.6313    2.3165    5.8546 P.3     1  UNL1        0.0000
      2 P           8.7097    1.5393    8.1647 P.3     1  UNL1        0.0000
      3 SI         11.1990    4.9894    6.3654 Si      1  UNL1        0.0000
      4 SI          9.3204    4.5157    8.6530 Si      1  UNL1        0.0000
      5 N          10.2828    3.9495    7.3688 N.3     1  UNL1        0.0000
      6 C          10.3105    5.1720    4.6745 C.3     1  UNL1        0.0000
      7 H           9.3003    5.5483    4.7985 H       1  UNL1        0.0000
      8 H          10.2503    4.1953    4.2009 H       1  UNL1        0.0000
      9 H          10.8297    5.8402    3.9949 H       1  UNL1        0.0000
     10 C          11.5557    6.7318    7.0401 C.3     1  UNL1        0.0000
     11 H          10.6280    7.2453    7.2584 H       1  UNL1        0.0000
     12 H          12.1072    7.3309    6.3236 H       1  UNL1        0.0000
     13 H          12.1343    6.6903    7.9550 H       1  UNL1        0.0000
     14 C          12.8735    4.1438    5.9824 C.3     1  UNL1        0.0000
     15 H          13.2228    4.5220    5.0255 H       1  UNL1        0.0000
     16 H          13.6327    4.3775    6.7240 H       1  UNL1        0.0000
     17 C          13.5529    1.7148    7.4136 C.3     1  UNL1        0.0000
     18 C          13.2947    0.2139    7.5475 C.3     1  UNL1        0.0000
     19 H          13.6418   -0.1458    8.5161 H       1  UNL1        0.0000
     20 H          13.8089   -0.3523    6.7767 H       1  UNL1        0.0000
     21 H          12.2287    0.0196    7.4609 H       1  UNL1        0.0000
     22 C          12.8572    2.4198    8.5804 C.3     1  UNL1        0.0000
     23 H          13.1085    1.9289    9.5201 H       1  UNL1        0.0000
     24 H          11.7749    2.3984    8.4438 H       1  UNL1        0.0000
     25 H          13.1574    3.4610    8.6523 H       1  UNL1        0.0000
     26 C          15.0535    1.9804    7.4890 C.3     1  UNL1        0.0000
     27 H          15.3966    1.8160    8.5110 H       1  UNL1        0.0000
     28 H          15.2970    3.0040    7.2163 H       1  UNL1        0.0000
     29 H          15.6078    1.3035    6.8443 H       1  UNL1        0.0000
     30 C          13.7379    1.9722    4.3194 C.3     1  UNL1        0.0000
     31 C          12.9075    2.5016    3.1445 C.3     1  UNL1        0.0000
     32 H          13.4035    2.2787    2.1999 H       1  UNL1        0.0000
     33 H          12.7667    3.5787    3.2029 H       1  UNL1        0.0000
     34 H          11.9322    2.0231    3.1316 H       1  UNL1        0.0000
     35 C          15.1141    2.6385    4.2850 C.3     1  UNL1        0.0000
     36 H          15.5001    2.6002    3.2657 H       1  UNL1        0.0000
     37 H          15.8255    2.1249    4.9226 H       1  UNL1        0.0000
     38 H          15.0759    3.6820    4.5838 H       1  UNL1        0.0000
     39 C          13.9095    0.4674    4.1229 C.3     1  UNL1        0.0000
     40 H          14.3306    0.2672    3.1374 H       1  UNL1        0.0000
     41 H          12.9481   -0.0342    4.1860 H       1  UNL1        0.0000
     42 H          14.5852    0.0452    4.8623 H       1  UNL1        0.0000
     43 C          10.3045    5.2322   10.1292 C.3     1  UNL1        0.0000
     44 H          10.7515    6.1820    9.8620 H       1  UNL1        0.0000
     45 H          11.1052    4.5686   10.4388 H       1  UNL1        0.0000
     46 H           9.6630    5.4042   10.9884 H       1  UNL1        0.0000
     47 C           8.0184    5.8474    8.1947 C.3     1  UNL1        0.0000
     48 H           8.4604    6.8323    8.2985 H       1  UNL1        0.0000
     49 H           7.1432    5.8184    8.8370 H       1  UNL1        0.0000
     50 H           7.6845    5.7523    7.1672 H       1  UNL1        0.0000
     51 C           8.4693    2.9369    9.3277 C.3     1  UNL1        0.0000
     52 H           8.9621    2.6859   10.2632 H       1  UNL1        0.0000
     53 H           7.4149    3.0890    9.5436 H       1  UNL1        0.0000
     54 C           8.8543    0.0897    9.4200 C.3     1  UNL1        0.0000
     55 C          10.2851    0.2083    9.9535 C.3     1  UNL1        0.0000
     56 H          10.4878   -0.5851   10.6726 H       1  UNL1        0.0000
     57 H          10.4476    1.1622   10.4506 H       1  UNL1        0.0000
     58 H          10.9976    0.1236    9.1385 H       1  UNL1        0.0000
     59 C           7.8880    0.1216   10.6038 C.3     1  UNL1        0.0000
     60 H           8.1794   -0.6510   11.3162 H       1  UNL1        0.0000
     61 H           6.8669   -0.0811   10.3003 H       1  UNL1        0.0000
     62 H           7.9104    1.0742   11.1246 H       1  UNL1        0.0000
     63 C           8.7239   -1.2555    8.7081 C.3     1  UNL1        0.0000
     64 H           9.0999   -2.0526    9.3496 H       1  UNL1        0.0000
     65 H           9.2993   -1.2595    7.7864 H       1  UNL1        0.0000
     66 H           7.6858   -1.4817    8.4791 H       1  UNL1        0.0000
     67 C           6.9903    1.4443    7.3329 C.3     1  UNL1        0.0000
     68 C           6.8346    2.8173    6.6664 C.3     1  UNL1        0.0000
     69 H           6.0420    2.7906    5.9188 H       1  UNL1        0.0000
     70 H           7.7683    3.1206    6.1820 H       1  UNL1        0.0000
     71 H           6.5831    3.5766    7.4002 H       1  UNL1        0.0000
     72 C           7.0115    0.3703    6.2431 C.3     1  UNL1        0.0000
     73 H           6.1318    0.4665    5.6067 H       1  UNL1        0.0000
     74 H           7.0035   -0.6293    6.6661 H       1  UNL1        0.0000
     75 H           7.9010    0.4720    5.6251 H       1  UNL1        0.0000
     76 C           5.7854    1.1971    8.2390 C.3     1  UNL1        0.0000
     77 H           4.8719    1.4261    7.6892 H       1  UNL1        0.0000
     78 H           5.8031    1.8238    9.1272 H       1  UNL1        0.0000
     79 H           5.7291    0.1559    8.5455 H       1  UNL1        0.0000
@<TRIPOS>BOND
     1    32    31    1
     2    34    31    1
     3    40    39    1
     4    31    33    1
     5    31    30    1
     6    36    35    1
     7     9     6    1
     8    39    41    1
     9    39    30    1
    10    39    42    1
    11     8     6    1
    12    35    30    1
    13    35    38    1
    14    35    37    1
    15    30     1    1
    16     6     7    1
    17     6     3    1
    18    15    14    1
    19    73    72    1
    20    75    72    1
    21     1    14    1
    22     1    17    1
    23    69    68    1
    24    14     3    1
    25    14    16    1
    26    70    68    1
    27    72    74    1
    28    72    67    1
    29    12    10    1
    30     3    10    1
    31     3     5    1
    32    68    67    1
    33    68    71    1
    34    20    18    1
    35    29    26    1
    36    10    11    1
    37    10    13    1
    38    50    47    1
    39    28    26    1
    40    67     2    1
    41    67    76    1
    42     5     4    1
    43    17    26    1
    44    17    18    1
    45    17    22    1
    46    21    18    1
    47    26    27    1
    48    18    19    1
    49    77    76    1
    50    65    63    1
    51     2    51    1
    52     2    54    1
    53    47    48    1
    54    47     4    1
    55    47    49    1
    56    76    79    1
    57    76    78    1
    58    24    22    1
    59    66    63    1
    60    22    25    1
    61    22    23    1
    62     4    51    1
    63     4    43    1
    64    63    64    1
    65    63    54    1
    66    58    55    1
    67    51    53    1
    68    51    52    1
    69    54    55    1
    70    54    59    1
    71    44    43    1
    72    55    57    1
    73    55    56    1
    74    43    45    1
    75    43    46    1
    76    61    59    1
    77    59    62    1
    78    59    60    1
