@<TRIPOS>MOLECULE
1,2,5
 79 78 0 0 0
SMALL
GASTEIGER

@<TRIPOS>ATOM
      1 P           6.3548    2.3977   14.5421 P.3     1  UNL1        0.0000
      2 P           4.7100    5.9449   12.2036 P.3     1  UNL1        0.0000
      3 SI          7.1173    2.1390   11.6355 Si      1  UNL1        0.0000
      4 SI          4.6317    3.4730   10.3987 Si      1  UNL1        0.0000
      5 N           5.8083    3.2668   11.6378 N.3     1  UNL1        0.0000
      6 C           8.6837    3.2449   11.6541 C.3     1  UNL1        0.0000
      7 H           8.8924    3.6365   10.6640 H       1  UNL1        0.0000
      8 H           9.5743    2.7300   11.9961 H       1  UNL1        0.0000
      9 H           8.5095    4.0985   12.3162 H       1  UNL1        0.0000
     10 C           7.1903    0.8999   10.1953 C.3     1  UNL1        0.0000
     11 H           7.3903    1.4117    9.2631 H       1  UNL1        0.0000
     12 H           6.2542    0.3657   10.0841 H       1  UNL1        0.0000
     13 H           7.9761    0.1683   10.3474 H       1  UNL1        0.0000
     14 C           6.9623    1.1778   13.2898 C.3     1  UNL1        0.0000
     15 H           6.2602    0.3542   13.1859 H       1  UNL1        0.0000
     16 H           7.9181    0.7586   13.5920 H       1  UNL1        0.0000
     17 C           7.6853    2.2491   15.8960 C.3     1  UNL1        0.0000
     18 C           7.3219    3.1787   17.0546 C.3     1  UNL1        0.0000
     19 H           8.1900    3.3352   17.6939 H       1  UNL1        0.0000
     20 H           6.5291    2.7634   17.6695 H       1  UNL1        0.0000
     21 H           6.9991    4.1478   16.6801 H       1  UNL1        0.0000
     22 C           8.9466    2.8096   15.2287 C.3     1  UNL1        0.0000
     23 H           9.7375    2.9389   15.9667 H       1  UNL1        0.0000
     24 H           8.7300    3.7815   14.7850 H       1  UNL1        0.0000
     25 H           9.3190    2.1497   14.4494 H       1  UNL1        0.0000
     26 C           7.9635    0.8449   16.4277 C.3     1  UNL1        0.0000
     27 H           8.9154    0.8407   16.9586 H       1  UNL1        0.0000
     28 H           8.0219    0.1097   15.6289 H       1  UNL1        0.0000
     29 H           7.1953    0.5303   17.1282 H       1  UNL1        0.0000
     30 C           4.7281    1.5986   15.1283 C.3     1  UNL1        0.0000
     31 C           3.8284    1.7305   13.8956 C.3     1  UNL1        0.0000
     32 H           2.7978    1.4789   14.1451 H       1  UNL1        0.0000
     33 H           4.1562    1.0736   13.0942 H       1  UNL1        0.0000
     34 H           3.8619    2.7554   13.5202 H       1  UNL1        0.0000
     35 C           4.1382    2.4639   16.2439 C.3     1  UNL1        0.0000
     36 H           3.0622    2.3094   16.3155 H       1  UNL1        0.0000
     37 H           4.3198    3.5189   16.0419 H       1  UNL1        0.0000
     38 H           4.5713    2.2182   17.2095 H       1  UNL1        0.0000
     39 C           4.7786    0.1398   15.5726 C.3     1  UNL1        0.0000
     40 H           3.7630   -0.2501   15.6433 H       1  UNL1        0.0000
     41 H           5.2404    0.0372   16.5501 H       1  UNL1        0.0000
     42 H           5.3258   -0.4823   14.8686 H       1  UNL1        0.0000
     43 C           3.3305    2.0697   10.3490 C.3     1  UNL1        0.0000
     44 H           3.8161    1.1033   10.2684 H       1  UNL1        0.0000
     45 H           2.6875    2.1832    9.4818 H       1  UNL1        0.0000
     46 H           2.6973    2.0483   11.2290 H       1  UNL1        0.0000
     47 C           5.3529    3.5415    8.6275 C.3     1  UNL1        0.0000
     48 H           5.3561    2.5431    8.2044 H       1  UNL1        0.0000
     49 H           6.3725    3.9087    8.6076 H       1  UNL1        0.0000
     50 H           4.7573    4.1676    7.9704 H       1  UNL1        0.0000
     51 C           3.7235    5.0811   10.9093 C.3     1  UNL1        0.0000
     52 H           3.4963    5.7421   10.0757 H       1  UNL1        0.0000
     53 H           2.7790    4.7886   11.3633 H       1  UNL1        0.0000
     54 C           3.3340    6.7557   13.2483 C.3     1  UNL1        0.0000
     55 C           2.1257    7.2991   12.4883 C.3     1  UNL1        0.0000
     56 H           1.3696    7.6181   13.2061 H       1  UNL1        0.0000
     57 H           1.6756    6.5460   11.8474 H       1  UNL1        0.0000
     58 H           2.3878    8.1578   11.8789 H       1  UNL1        0.0000
     59 C           2.8939    5.5989   14.1524 C.3     1  UNL1        0.0000
     60 H           2.1795    5.9402   14.9003 H       1  UNL1        0.0000
     61 H           3.7669    5.1872   14.6627 H       1  UNL1        0.0000
     62 H           2.4276    4.8016   13.5767 H       1  UNL1        0.0000
     63 C           3.9089    7.8569   14.1373 C.3     1  UNL1        0.0000
     64 H           3.1797    8.1369   14.8978 H       1  UNL1        0.0000
     65 H           4.1454    8.7496   13.5641 H       1  UNL1        0.0000
     66 H           4.8072    7.5155   14.6462 H       1  UNL1        0.0000
     67 C           5.6157    7.2746   11.1924 C.3     1  UNL1        0.0000
     68 C           6.6791    7.9102   12.0905 C.3     1  UNL1        0.0000
     69 H           7.2789    8.6175   11.5180 H       1  UNL1        0.0000
     70 H           7.3404    7.1341   12.4765 H       1  UNL1        0.0000
     71 H           6.2464    8.4414   12.9323 H       1  UNL1        0.0000
     72 C           6.3572    6.4966   10.1026 C.3     1  UNL1        0.0000
     73 H           7.1288    7.1212    9.6531 H       1  UNL1        0.0000
     74 H           5.6820    6.1739    9.3168 H       1  UNL1        0.0000
     75 H           6.8339    5.6155   10.5399 H       1  UNL1        0.0000
     76 C           4.7489    8.3569   10.5560 C.3     1  UNL1        0.0000
     77 H           5.3490    8.9366    9.8540 H       1  UNL1        0.0000
     78 H           4.3616    9.0432   11.3044 H       1  UNL1        0.0000
     79 H           3.9142    7.9278   10.0057 H       1  UNL1        0.0000
@<TRIPOS>BOND
     1    50    47    1
     2    48    47    1
     3    49    47    1
     4    47     4    1
     5    11    10    1
     6    74    72    1
     7    45    43    1
     8    73    72    1
     9    77    76    1
    10    79    76    1
    11    52    51    1
    12    12    10    1
    13    72    75    1
    14    72    67    1
    15    10    13    1
    16    10     3    1
    17    44    43    1
    18    43     4    1
    19    43    46    1
    20     4    51    1
    21     4     5    1
    22    76    67    1
    23    76    78    1
    24     7     6    1
    25    51    53    1
    26    51     2    1
    27    67    68    1
    28    67     2    1
    29    69    68    1
    30     3     5    1
    31     3     6    1
    32     3    14    1
    33     6     8    1
    34     6     9    1
    35    57    55    1
    36    58    55    1
    37    68    70    1
    38    68    71    1
    39     2    54    1
    40    55    56    1
    41    55    54    1
    42    33    31    1
    43    15    14    1
    44    54    63    1
    45    54    59    1
    46    14    16    1
    47    14     1    1
    48    34    31    1
    49    65    63    1
    50    62    59    1
    51    31    32    1
    52    31    30    1
    53    63    66    1
    54    63    64    1
    55    59    61    1
    56    59    60    1
    57    25    22    1
    58     1    30    1
    59     1    17    1
    60    24    22    1
    61    42    39    1
    62    30    39    1
    63    30    35    1
    64    22    17    1
    65    22    23    1
    66    39    40    1
    67    39    41    1
    68    28    26    1
    69    17    26    1
    70    17    18    1
    71    37    35    1
    72    35    36    1
    73    35    38    1
    74    26    27    1
    75    26    29    1
    76    21    18    1
    77    18    20    1
    78    18    19    1
