@<TRIPOS>MOLECULE
1,2,5
 79 78 0 0 0
SMALL
GASTEIGER

@<TRIPOS>ATOM
      1 P          13.5427    3.7157   18.2281 P.3     1  UNL1        0.0000
      2 P          16.1222    0.4350   19.8664 P.3     1  UNL1        0.0000
      3 SI         12.4996    3.0113   20.9673 Si      1  UNL1        0.0000
      4 SI         14.9423    1.9215   22.2045 Si      1  UNL1        0.0000
      5 N          14.0726    2.3435   20.7830 N.3     1  UNL1        0.0000
      6 C          11.1220    1.6936   21.1725 C.3     1  UNL1        0.0000
      7 H          11.2826    1.1145   22.0745 H       1  UNL1        0.0000
      8 H          11.0868    0.9983   20.3390 H       1  UNL1        0.0000
      9 H          10.1447    2.1600   21.2551 H       1  UNL1        0.0000
     10 C          12.2567    4.2498   22.4002 C.3     1  UNL1        0.0000
     11 H          12.2182    3.7123   23.3400 H       1  UNL1        0.0000
     12 H          11.3243    4.7972   22.3010 H       1  UNL1        0.0000
     13 H          13.0621    4.9714   22.4725 H       1  UNL1        0.0000
     14 C          12.1020    3.9092   19.3203 C.3     1  UNL1        0.0000
     15 H          11.2584    3.3993   18.8638 H       1  UNL1        0.0000
     16 H          11.8391    4.9574   19.4393 H       1  UNL1        0.0000
     17 C          14.4736    5.3529   18.3885 C.3     1  UNL1        0.0000
     18 C          15.8481    5.1742   17.7428 C.3     1  UNL1        0.0000
     19 H          16.4549    6.0667   17.8950 H       1  UNL1        0.0000
     20 H          15.7758    4.9907   16.6749 H       1  UNL1        0.0000
     21 H          16.3557    4.3261   18.2072 H       1  UNL1        0.0000
     22 C          13.7666    6.5752   17.8097 C.3     1  UNL1        0.0000
     23 H          14.3140    7.4745   18.0935 H       1  UNL1        0.0000
     24 H          12.7545    6.6675   18.1988 H       1  UNL1        0.0000
     25 H          13.7270    6.5425   16.7241 H       1  UNL1        0.0000
     26 C          14.6886    5.5583   19.8885 C.3     1  UNL1        0.0000
     27 H          15.4232    6.3454   20.0572 H       1  UNL1        0.0000
     28 H          15.0522    4.6367   20.3419 H       1  UNL1        0.0000
     29 H          13.7653    5.8442   20.3837 H       1  UNL1        0.0000
     30 C          12.7163    3.5801   16.5164 C.3     1  UNL1        0.0000
     31 C          12.2877    2.1102   16.4467 C.3     1  UNL1        0.0000
     32 H          11.7119    1.9204   15.5415 H       1  UNL1        0.0000
     33 H          11.6743    1.8405   17.3058 H       1  UNL1        0.0000
     34 H          13.1630    1.4626   16.4403 H       1  UNL1        0.0000
     35 C          11.4815    4.4672   16.3414 C.3     1  UNL1        0.0000
     36 H          11.0761    4.3145   15.3409 H       1  UNL1        0.0000
     37 H          11.7226    5.5201   16.4443 H       1  UNL1        0.0000
     38 H          10.6978    4.2215   17.0521 H       1  UNL1        0.0000
     39 C          13.6799    3.8638   15.3648 C.3     1  UNL1        0.0000
     40 H          13.2141    3.5712   14.4234 H       1  UNL1        0.0000
     41 H          14.6001    3.2991   15.4685 H       1  UNL1        0.0000
     42 H          13.9206    4.9217   15.2980 H       1  UNL1        0.0000
     43 C          13.9367    1.1418   23.6273 C.3     1  UNL1        0.0000
     44 H          13.2719    0.3554   23.2890 H       1  UNL1        0.0000
     45 H          13.3264    1.9018   24.0998 H       1  UNL1        0.0000
     46 H          14.5862    0.7252   24.3910 H       1  UNL1        0.0000
     47 C          15.9077    3.3876   22.9761 C.3     1  UNL1        0.0000
     48 H          16.5906    3.8489   22.2687 H       1  UNL1        0.0000
     49 H          16.4894    3.0652   23.8347 H       1  UNL1        0.0000
     50 H          15.2228    4.1552   23.3176 H       1  UNL1        0.0000
     51 C          16.2802    0.6589   21.6637 C.3     1  UNL1        0.0000
     52 H          17.2516    1.0992   21.8696 H       1  UNL1        0.0000
     53 H          16.2242   -0.2948   22.1827 H       1  UNL1        0.0000
     54 C          15.1646   -1.1842   19.6790 C.3     1  UNL1        0.0000
     55 C          13.9075   -1.0224   20.5346 C.3     1  UNL1        0.0000
     56 H          13.1849   -1.8004   20.2890 H       1  UNL1        0.0000
     57 H          13.4526   -0.0503   20.3477 H       1  UNL1        0.0000
     58 H          14.1379   -1.0960   21.5935 H       1  UNL1        0.0000
     59 C          14.7220   -1.2943   18.2195 C.3     1  UNL1        0.0000
     60 H          14.0892   -2.1708   18.0815 H       1  UNL1        0.0000
     61 H          15.5678   -1.3758   17.5432 H       1  UNL1        0.0000
     62 H          14.1475   -0.4050   17.9514 H       1  UNL1        0.0000
     63 C          15.9071   -2.4460   20.1090 C.3     1  UNL1        0.0000
     64 H          15.2145   -3.2883   20.1072 H       1  UNL1        0.0000
     65 H          16.3045   -2.3465   21.1172 H       1  UNL1        0.0000
     66 H          16.7205   -2.6870   19.4297 H       1  UNL1        0.0000
     67 C          17.9397    0.2034   19.3435 C.3     1  UNL1        0.0000
     68 C          18.4713    1.6393   19.2731 C.3     1  UNL1        0.0000
     69 H          19.5403    1.6434   19.0630 H       1  UNL1        0.0000
     70 H          18.3052    2.1643   20.2131 H       1  UNL1        0.0000
     71 H          17.9631    2.1916   18.4843 H       1  UNL1        0.0000
     72 C          18.0852   -0.4411   17.9657 C.3     1  UNL1        0.0000
     73 H          19.1198   -0.3533   17.6328 H       1  UNL1        0.0000
     74 H          17.4577    0.0491   17.2294 H       1  UNL1        0.0000
     75 H          17.8370   -1.4991   17.9926 H       1  UNL1        0.0000
     76 C          18.7867   -0.5924   20.3393 C.3     1  UNL1        0.0000
     77 H          19.8089   -0.6514   19.9648 H       1  UNL1        0.0000
     78 H          18.4197   -1.6060   20.4620 H       1  UNL1        0.0000
     79 H          18.8236   -0.1182   21.3157 H       1  UNL1        0.0000
@<TRIPOS>BOND
     1    40    39    1
     2    42    39    1
     3    36    35    1
     4    39    41    1
     5    39    30    1
     6    32    31    1
     7    35    37    1
     8    35    30    1
     9    35    38    1
    10    34    31    1
    11    31    30    1
    12    31    33    1
    13    30     1    1
    14    20    18    1
    15    25    22    1
    16    74    72    1
    17    61    59    1
    18    73    72    1
    19    18    19    1
    20    18    21    1
    21    18    17    1
    22    22    23    1
    23    22    24    1
    24    22    17    1
    25    62    59    1
    26    72    75    1
    27    72    67    1
    28    60    59    1
    29    59    54    1
    30     1    17    1
    31     1    14    1
    32    17    26    1
    33    71    68    1
    34    15    14    1
    35    69    68    1
    36    68    67    1
    37    68    70    1
    38    14    16    1
    39    14     3    1
    40    67     2    1
    41    67    76    1
    42    66    63    1
    43    54     2    1
    44    54    63    1
    45    54    55    1
    46     2    51    1
    47    26    27    1
    48    26    28    1
    49    26    29    1
    50    77    76    1
    51    64    63    1
    52    63    65    1
    53    56    55    1
    54     8     6    1
    55    76    78    1
    56    76    79    1
    57    57    55    1
    58    55    58    1
    59     5     3    1
    60     5     4    1
    61     3     6    1
    62     3    10    1
    63     6     9    1
    64     6     7    1
    65    51    52    1
    66    51    53    1
    67    51     4    1
    68     4    47    1
    69     4    43    1
    70    48    47    1
    71    12    10    1
    72    10    13    1
    73    10    11    1
    74    47    50    1
    75    47    49    1
    76    44    43    1
    77    43    45    1
    78    43    46    1
