@<TRIPOS>MOLECULE
1,2,3
 103 105 0 0 0
SMALL
GASTEIGER

@<TRIPOS>ATOM
      1 P           6.6103    1.0724   11.7581 P.3     1  UNL1       -0.0903
      2 P           3.3907    3.7978   11.2167 P.3     1  UNL1       -0.0903
      3 N           4.4312    2.1432   13.5688 N.ar    1  UNL1       -0.2461
      4 C           3.7794    3.0925   14.3181 C.ar    1  UNL1        0.0758
      5 C           3.3810    4.3791   13.9433 C.ar    1  UNL1       -0.0169
      6 C           2.7094    5.1381   14.8841 C.ar    1  UNL1       -0.0525
      7 H           2.4101    6.1380   14.6015 H       1  UNL1        0.0624
      8 C           2.4299    4.6923   16.1833 C.ar    1  UNL1       -0.0410
      9 C           2.9154    3.4551   16.5740 C.ar    1  UNL1       -0.0482
     10 H           2.7862    3.0867   17.5782 H       1  UNL1        0.0627
     11 C           3.6020    2.6724   15.6580 C.ar    1  UNL1        0.0101
     12 C           4.2945    1.4183   15.7584 C.ar    1  UNL1        0.0101
     13 C           4.5512    0.5716   16.8245 C.ar    1  UNL1       -0.0482
     14 H           4.1272    0.8066   17.7867 H       1  UNL1        0.0627
     15 C           5.3611   -0.5358   16.6329 C.ar    1  UNL1       -0.0410
     16 C           5.8956   -0.7530   15.3578 C.ar    1  UNL1       -0.0525
     17 H           6.5475   -1.6025   15.2056 H       1  UNL1        0.0624
     18 C           5.6408    0.0560   14.2619 C.ar    1  UNL1       -0.0169
     19 C           4.8052    1.1589   14.4606 C.ar    1  UNL1        0.0758
     20 C           6.2239   -0.3211   12.9310 C.3     1  UNL1       -0.0041
     21 H           5.4649   -0.9024   12.3935 H       1  UNL1        0.0362
     22 H           7.1008   -0.9580   13.0767 H       1  UNL1        0.0362
     23 C           3.7931    4.9444   12.6202 C.3     1  UNL1       -0.0041
     24 H           4.8839    5.0212   12.6278 H       1  UNL1        0.0362
     25 H           3.3788    5.9427   12.4755 H       1  UNL1        0.0362
     26 C           1.6410    5.6010   17.1145 C.3     1  UNL1       -0.0126
     27 C           2.4217    6.9035   17.3407 C.3     1  UNL1       -0.0560
     28 H           3.3974    6.6856   17.7702 H       1  UNL1        0.0238
     29 H           1.8793    7.5530   18.0250 H       1  UNL1        0.0238
     30 H           2.5734    7.4421   16.4093 H       1  UNL1        0.0238
     31 C           0.2807    5.9149   16.4747 C.3     1  UNL1       -0.0560
     32 H           0.3968    6.4397   15.5303 H       1  UNL1        0.0238
     33 H          -0.3126    6.5401   17.1390 H       1  UNL1        0.0238
     34 H          -0.2665    4.9932   16.2870 H       1  UNL1        0.0238
     35 C           1.3829    4.9585   18.4802 C.3     1  UNL1       -0.0560
     36 H           0.8324    4.0265   18.3742 H       1  UNL1        0.0238
     37 H           0.7892    5.6337   19.0938 H       1  UNL1        0.0238
     38 H           2.3162    4.7637   19.0034 H       1  UNL1        0.0238
     39 C           5.7013   -1.5137   17.7478 C.3     1  UNL1       -0.0126
     40 C           7.2212   -1.5285   17.9651 C.3     1  UNL1       -0.0560
     41 H           7.7470   -1.8572   17.0728 H       1  UNL1        0.0238
     42 H           7.4782   -2.2040   18.7787 H       1  UNL1        0.0238
     43 H           7.5732   -0.5308   18.2198 H       1  UNL1        0.0238
     44 C           5.0359   -1.1423   19.0758 C.3     1  UNL1       -0.0560
     45 H           5.3703   -0.1666   19.4210 H       1  UNL1        0.0238
     46 H           5.3020   -1.8766   19.8340 H       1  UNL1        0.0238
     47 H           3.9526   -1.1347   18.9802 H       1  UNL1        0.0238
     48 C           5.2188   -2.9167   17.3521 C.3     1  UNL1       -0.0560
     49 H           4.1450   -2.9075   17.1766 H       1  UNL1        0.0238
     50 H           5.4332   -3.6271   18.1483 H       1  UNL1        0.0238
     51 H           5.7079   -3.2643   16.4462 H       1  UNL1        0.0238
     52 C           7.4751    0.0501   10.3790 C.3     1  UNL1       -0.0166
     53 C           7.4982    0.9645    9.1502 C.3     1  UNL1       -0.0561
     54 H           6.4894    1.3073    8.9258 H       1  UNL1        0.0238
     55 H           7.8797    0.4273    8.2824 H       1  UNL1        0.0238
     56 H           8.1258    1.8365    9.3082 H       1  UNL1        0.0238
     57 C           6.5887   -1.1563   10.0511 C.3     1  UNL1       -0.0561
     58 H           6.7210   -1.9553   10.7767 H       1  UNL1        0.0238
     59 H           6.8631   -1.5538    9.0740 H       1  UNL1        0.0238
     60 H           5.5400   -0.8814   10.0206 H       1  UNL1        0.0238
     61 C           8.8748   -0.5000   10.6517 C.3     1  UNL1       -0.0561
     62 H           9.6222    0.2781   10.7645 H       1  UNL1        0.0238
     63 H           9.1754   -1.1187    9.8052 H       1  UNL1        0.0238
     64 H           8.8848   -1.1325   11.5366 H       1  UNL1        0.0238
     65 C           7.9912    2.0242   12.6983 C.3     1  UNL1       -0.0166
     66 C           8.8526    2.8273   11.7189 C.3     1  UNL1       -0.0561
     67 H           9.4756    2.1950   11.0951 H       1  UNL1        0.0238
     68 H           9.5165    3.4867   12.2783 H       1  UNL1        0.0238
     69 H           8.2293    3.4476   11.0786 H       1  UNL1        0.0238
     70 C           8.8750    1.1549   13.5919 C.3     1  UNL1       -0.0561
     71 H           8.2818    0.6615   14.3580 H       1  UNL1        0.0238
     72 H           9.5992    1.7937   14.0980 H       1  UNL1        0.0238
     73 H           9.4277    0.4075   13.0337 H       1  UNL1        0.0238
     74 C           7.2878    3.0459   13.5979 C.3     1  UNL1       -0.0561
     75 H           6.5323    3.5951   13.0402 H       1  UNL1        0.0238
     76 H           8.0143    3.7575   13.9898 H       1  UNL1        0.0238
     77 H           6.8073    2.5638   14.4436 H       1  UNL1        0.0238
     78 C           4.2585    4.7225    9.7881 C.3     1  UNL1       -0.0166
     79 C           5.7461    4.7061   10.1564 C.3     1  UNL1       -0.0561
     80 H           5.9942    5.4691   10.8903 H       1  UNL1        0.0238
     81 H           6.3545    4.8897    9.2718 H       1  UNL1        0.0238
     82 H           6.0047    3.7206   10.5562 H       1  UNL1        0.0238
     83 C           3.8038    6.1563    9.5331 C.3     1  UNL1       -0.0561
     84 H           2.7792    6.1901    9.1730 H       1  UNL1        0.0238
     85 H           4.4384    6.6035    8.7676 H       1  UNL1        0.0238
     86 H           3.8849    6.7679   10.4286 H       1  UNL1        0.0238
     87 C           4.1151    3.8943    8.5108 C.3     1  UNL1       -0.0561
     88 H           4.4456    2.8757    8.6988 H       1  UNL1        0.0238
     89 H           4.7350    4.3192    7.7213 H       1  UNL1        0.0238
     90 H           3.0924    3.8681    8.1515 H       1  UNL1        0.0238
     91 C           1.5001    4.0726   11.1095 C.3     1  UNL1       -0.0166
     92 C           0.9530    3.7834    9.7119 C.3     1  UNL1       -0.0561
     93 H           1.2008    4.5787    9.0133 H       1  UNL1        0.0238
     94 H          -0.1340    3.7095    9.7554 H       1  UNL1        0.0238
     95 H           1.3346    2.8399    9.3308 H       1  UNL1        0.0238
     96 C           0.9454    3.0139   12.0683 C.3     1  UNL1       -0.0561
     97 H           1.2337    2.0199   11.7319 H       1  UNL1        0.0238
     98 H          -0.1422    3.0675   12.1085 H       1  UNL1        0.0238
     99 H           1.3296    3.1641   13.0761 H       1  UNL1        0.0238
    100 C           1.0006    5.4458   11.5614 C.3     1  UNL1       -0.0561
    101 H           1.1571    5.5851   12.6268 H       1  UNL1        0.0238
    102 H          -0.0722    5.5072   11.3773 H       1  UNL1        0.0238
    103 H           1.4762    6.2576   11.0185 H       1  UNL1        0.0238
@<TRIPOS>BOND
     1    89    87    1
     2    90    87    1
     3    55    53    1
     4    87    88    1
     5    87    78    1
     6    85    83    1
     7    54    53    1
     8    93    92    1
     9    59    57    1
    10    53    56    1
    11    53    52    1
    12    84    83    1
    13    81    79    1
    14    95    92    1
    15    83    78    1
    16    83    86    1
    17    92    94    1
    18    92    91    1
    19    78    79    1
    20    78     2    1
    21    63    61    1
    22    60    57    1
    23    57    52    1
    24    57    58    1
    25    79    82    1
    26    79    80    1
    27    52    61    1
    28    52     1    1
    29    61    62    1
    30    61    64    1
    31   103   100    1
    32    69    66    1
    33    67    66    1
    34    91     2    1
    35    91   100    1
    36    91    96    1
    37     2    23    1
    38   102   100    1
    39   100   101    1
    40    66    68    1
    41    66    65    1
    42    97    96    1
    43     1    65    1
    44     1    20    1
    45    96    98    1
    46    96    99    1
    47    21    20    1
    48    25    23    1
    49    23    24    1
    50    23     5    1
    51    65    70    1
    52    65    74    1
    53    20    22    1
    54    20    18    1
    55    73    70    1
    56    75    74    1
    57     3     4   ar
    58     3    19   ar
    59    70    72    1
    60    70    71    1
    61    74    76    1
    62    74    77    1
    63     5     4   ar
    64     5     6   ar
    65    18    19   ar
    66    18    16   ar
    67     4    11   ar
    68    19    12   ar
    69     7     6    1
    70     6     8   ar
    71    17    16    1
    72    16    15   ar
    73    32    31    1
    74    11    12   ar
    75    11     9   ar
    76    12    13   ar
    77     8     9   ar
    78     8    26    1
    79    34    31    1
    80    30    27    1
    81    51    48    1
    82    31    26    1
    83    31    33    1
    84     9    10    1
    85    15    13   ar
    86    15    39    1
    87    13    14    1
    88    41    40    1
    89    26    27    1
    90    26    35    1
    91    49    48    1
    92    27    28    1
    93    27    29    1
    94    48    39    1
    95    48    50    1
    96    39    40    1
    97    39    44    1
    98    40    43    1
    99    40    42    1
   100    36    35    1
   101    35    38    1
   102    35    37    1
   103    47    44    1
   104    44    45    1
   105    44    46    1
