@<TRIPOS>MOLECULE
1,2,5
 43 42 0 0 0
SMALL
GASTEIGER

@<TRIPOS>ATOM
      1 P           4.0346   10.0787    5.7492 P.3     1  UNL1        0.0000
      2 P           1.3986    8.0853    8.3532 P.3     1  UNL1        0.0000
      3 SI          3.6726    7.2584    4.6051 Si      1  UNL1        0.0000
      4 SI          2.5157    5.6625    6.8734 Si      1  UNL1        0.0000
      5 N           3.1995    7.0921    6.2356 N.3     1  UNL1        0.0000
      6 C           4.6161    8.9242    4.4573 C.3     1  UNL1        0.0000
      7 C           1.4461    6.2532    8.3650 C.3     1  UNL1        0.0000
      8 C           2.5078   10.7244    4.9318 C.3     1  UNL1        0.0000
      9 C           5.1370   11.5295    5.4075 C.3     1  UNL1        0.0000
     10 C           0.1475    8.3265    7.0167 C.3     1  UNL1        0.0000
     11 C           0.2893    8.3851    9.8098 C.3     1  UNL1        0.0000
     12 C           2.2121    7.3272    3.3629 C.3     1  UNL1        0.0000
     13 C           4.8290    5.8839    3.9434 C.3     1  UNL1        0.0000
     14 C           3.8853    4.4442    7.4388 C.3     1  UNL1        0.0000
     15 C           1.3385    4.6846    5.7301 C.3     1  UNL1        0.0000
     16 H           4.4995    9.3786    3.4728 H       1  UNL1        0.0000
     17 H           5.6780    8.7551    4.6250 H       1  UNL1        0.0000
     18 H           1.8790    5.9306    9.3094 H       1  UNL1        0.0000
     19 H           0.4265    5.8672    8.3170 H       1  UNL1        0.0000
     20 H           2.1229   11.5671    5.5038 H       1  UNL1        0.0000
     21 H           2.7159   11.0452    3.9119 H       1  UNL1        0.0000
     22 H           1.7575    9.9394    4.9177 H       1  UNL1        0.0000
     23 H           6.1493   11.2932    5.7288 H       1  UNL1        0.0000
     24 H           5.1426   11.7715    4.3453 H       1  UNL1        0.0000
     25 H           4.7897   12.3917    5.9729 H       1  UNL1        0.0000
     26 H          -0.1047    9.3823    6.9325 H       1  UNL1        0.0000
     27 H           0.5853    7.9842    6.0825 H       1  UNL1        0.0000
     28 H          -0.7575    7.7566    7.2251 H       1  UNL1        0.0000
     29 H          -0.0171    9.4292    9.8250 H       1  UNL1        0.0000
     30 H          -0.5951    7.7504    9.7678 H       1  UNL1        0.0000
     31 H           0.8381    8.1766   10.7256 H       1  UNL1        0.0000
     32 H           1.4101    7.9820    3.6875 H       1  UNL1        0.0000
     33 H           2.5393    7.6704    2.3865 H       1  UNL1        0.0000
     34 H           1.7892    6.3377    3.2351 H       1  UNL1        0.0000
     35 H           4.2987    4.9382    3.9269 H       1  UNL1        0.0000
     36 H           5.1693    6.0876    2.9332 H       1  UNL1        0.0000
     37 H           5.7057    5.7517    4.5685 H       1  UNL1        0.0000
     38 H           3.5804    3.8132    8.2678 H       1  UNL1        0.0000
     39 H           4.1535    3.7896    6.6162 H       1  UNL1        0.0000
     40 H           4.7839    4.9846    7.7328 H       1  UNL1        0.0000
     41 H           0.5149    5.2944    5.3759 H       1  UNL1        0.0000
     42 H           1.8794    4.3275    4.8618 H       1  UNL1        0.0000
     43 H           0.9200    3.8202    6.2350 H       1  UNL1        0.0000
@<TRIPOS>BOND
     1    33    12    1
     2    36    13    1
     3    34    12    1
     4    12    32    1
     5    12     3    1
     6    16     6    1
     7    21     8    1
     8    35    13    1
     9    13    37    1
    10    13     3    1
    11    24     9    1
    12     6     3    1
    13     6    17    1
    14     6     1    1
    15     3     5    1
    16    42    15    1
    17    22     8    1
    18     8    20    1
    19     8     1    1
    20    41    15    1
    21     9    23    1
    22     9     1    1
    23     9    25    1
    24    15    43    1
    25    15     4    1
    26    27    10    1
    27     5     4    1
    28    39    14    1
    29     4    14    1
    30     4     7    1
    31    26    10    1
    32    10    28    1
    33    10     2    1
    34    14    40    1
    35    14    38    1
    36    19     7    1
    37     2     7    1
    38     2    11    1
    39     7    18    1
    40    30    11    1
    41    11    29    1
    42    11    31    1
