@<TRIPOS>MOLECULE
1,2,5
 67 66 0 0 0
SMALL
GASTEIGER

@<TRIPOS>ATOM
      1 P          -1.4011    2.5803   13.0741 P.3     1  UNL1        0.0000
      2 P           1.0314    6.2954   11.3032 P.3     1  UNL1        0.0000
      3 SI          1.0992    2.9396   14.6926 Si      1  UNL1        0.0000
      4 SI          1.4178    5.8881   14.3219 Si      1  UNL1        0.0000
      5 N           0.9573    4.3444   13.7061 N.3     1  UNL1        0.0000
      6 C           0.7302    3.1648   16.5526 C.3     1  UNL1        0.0000
      7 H           1.5191    3.7609   16.9981 H       1  UNL1        0.0000
      8 H           0.7191    2.2090   17.0680 H       1  UNL1        0.0000
      9 H          -0.2107    3.6642   16.7515 H       1  UNL1        0.0000
     10 C           2.8519    2.1658   14.6808 C.3     1  UNL1        0.0000
     11 H           3.5504    2.8628   15.1298 H       1  UNL1        0.0000
     12 H           3.2321    1.9101   13.6977 H       1  UNL1        0.0000
     13 H           2.8631    1.2614   15.2812 H       1  UNL1        0.0000
     14 C          -0.1383    1.6465   13.9884 C.3     1  UNL1        0.0000
     15 H           0.3630    0.9807   13.2884 H       1  UNL1        0.0000
     16 H          -0.5868    1.0330   14.7666 H       1  UNL1        0.0000
     17 C          -2.3727    3.3970   14.4449 C.3     1  UNL1        0.0000
     18 H          -1.6494    4.1576   14.7728 H       1  UNL1        0.0000
     19 C          -3.5957    4.1208   13.8860 C.3     1  UNL1        0.0000
     20 H          -3.9400    4.8747   14.5921 H       1  UNL1        0.0000
     21 H          -4.4131    3.4249   13.7162 H       1  UNL1        0.0000
     22 H          -3.3429    4.6103   12.9460 H       1  UNL1        0.0000
     23 C          -2.7622    2.5565   15.6570 C.3     1  UNL1        0.0000
     24 H          -3.1498    3.2189   16.4310 H       1  UNL1        0.0000
     25 H          -1.9153    2.0211   16.0753 H       1  UNL1        0.0000
     26 H          -3.5429    1.8409   15.4164 H       1  UNL1        0.0000
     27 C          -2.4537    1.2591   12.2673 C.3     1  UNL1        0.0000
     28 H          -1.7215    0.7378   11.6376 H       1  UNL1        0.0000
     29 C          -3.0752    0.2254   13.1998 C.3     1  UNL1        0.0000
     30 H          -3.4261   -0.6254   12.6157 H       1  UNL1        0.0000
     31 H          -3.9316    0.6390   13.7253 H       1  UNL1        0.0000
     32 H          -2.3576   -0.1414   13.9301 H       1  UNL1        0.0000
     33 C          -3.5060    1.8773   11.3499 C.3     1  UNL1        0.0000
     34 H          -3.8027    1.1671   10.5792 H       1  UNL1        0.0000
     35 H          -3.1110    2.7753   10.8758 H       1  UNL1        0.0000
     36 H          -4.3946    2.1537   11.9096 H       1  UNL1        0.0000
     37 C           3.1448    5.8940   15.1319 C.3     1  UNL1        0.0000
     38 H           3.0756    5.4294   16.1087 H       1  UNL1        0.0000
     39 H           3.5039    6.9075   15.2775 H       1  UNL1        0.0000
     40 H           3.8895    5.3493   14.5628 H       1  UNL1        0.0000
     41 C           0.2020    6.6131   15.6158 C.3     1  UNL1        0.0000
     42 H           0.2288    6.0415   16.5364 H       1  UNL1        0.0000
     43 H          -0.8218    6.6118   15.2520 H       1  UNL1        0.0000
     44 H           0.4636    7.6379   15.8624 H       1  UNL1        0.0000
     45 C           1.3517    7.1523   12.8763 C.3     1  UNL1        0.0000
     46 H           0.5095    7.8167   13.0548 H       1  UNL1        0.0000
     47 H           2.2514    7.7594   12.7982 H       1  UNL1        0.0000
     48 C           2.7350    6.2387   10.5384 C.3     1  UNL1        0.0000
     49 H           2.6227    5.6504    9.6210 H       1  UNL1        0.0000
     50 C           3.6589    5.4998   11.5040 C.3     1  UNL1        0.0000
     51 H           4.5496    5.1328   10.9931 H       1  UNL1        0.0000
     52 H           3.1476    4.6555   11.9635 H       1  UNL1        0.0000
     53 H           3.9784    6.1659   12.3018 H       1  UNL1        0.0000
     54 C           3.3359    7.5898   10.1587 C.3     1  UNL1        0.0000
     55 H           4.3765    7.4472    9.8666 H       1  UNL1        0.0000
     56 H           3.3182    8.2858   10.9951 H       1  UNL1        0.0000
     57 H           2.8136    8.0429    9.3201 H       1  UNL1        0.0000
     58 C           0.1843    7.6075   10.2777 C.3     1  UNL1        0.0000
     59 H           0.8209    8.5002   10.3015 H       1  UNL1        0.0000
     60 C          -1.1827    7.9603   10.8528 C.3     1  UNL1        0.0000
     61 H          -1.6766    8.6872   10.2100 H       1  UNL1        0.0000
     62 H          -1.1031    8.3896   11.8478 H       1  UNL1        0.0000
     63 H          -1.7966    7.0633   10.9131 H       1  UNL1        0.0000
     64 C           0.0148    7.1154    8.8444 C.3     1  UNL1        0.0000
     65 H          -0.4563    7.8835    8.2327 H       1  UNL1        0.0000
     66 H          -0.6257    6.2351    8.8496 H       1  UNL1        0.0000
     67 H           0.9680    6.8552    8.3897 H       1  UNL1        0.0000
@<TRIPOS>BOND
     1    65    64    1
     2    67    64    1
     3    64    66    1
     4    64    58    1
     5    57    54    1
     6    49    48    1
     7    55    54    1
     8    54    48    1
     9    54    56    1
    10    61    60    1
    11    58    59    1
    12    58    60    1
    13    58     2    1
    14    48     2    1
    15    48    50    1
    16    34    33    1
    17    60    63    1
    18    60    62    1
    19    35    33    1
    20    51    50    1
    21     2    45    1
    22    33    36    1
    23    33    27    1
    24    50    52    1
    25    50    53    1
    26    28    27    1
    27    27     1    1
    28    27    29    1
    29    30    29    1
    30    47    45    1
    31    45    46    1
    32    45     4    1
    33    22    19    1
    34     1    14    1
    35     1    17    1
    36    29    31    1
    37    29    32    1
    38    15    14    1
    39    12    10    1
    40     5     4    1
    41     5     3    1
    42    21    19    1
    43    19    17    1
    44    19    20    1
    45    14     3    1
    46    14    16    1
    47     4    37    1
    48     4    41    1
    49    17    18    1
    50    17    23    1
    51    40    37    1
    52    10     3    1
    53    10    11    1
    54    10    13    1
    55     3     6    1
    56    37    39    1
    57    37    38    1
    58    43    41    1
    59    26    23    1
    60    41    44    1
    61    41    42    1
    62    23    25    1
    63    23    24    1
    64     6     9    1
    65     6     7    1
    66     6     8    1
