@<TRIPOS>MOLECULE
1,6,11
 92 96 0 0 0
SMALL
GASTEIGER

@<TRIPOS>ATOM
      1 N           4.3640    3.5352    4.7250 N.3     1  UNL1        0.0000
      2 SI          4.6814    2.6572    6.2457 Si      1  UNL1        0.0000
      3 C           4.2131    3.8399    7.6729 C.3     1  UNL1        0.0000
      4 H           3.1292    3.9459    7.7204 H       1  UNL1        0.0000
      5 H           4.5804    3.5384    8.6527 H       1  UNL1        0.0000
      6 P           4.8530    5.4835    7.1779 P.3     1  UNL1        0.0000
      7 SI          4.9540    2.9419    3.1506 Si      1  UNL1        0.0000
      8 C           4.5761    4.2857    1.8451 C.3     1  UNL1        0.0000
      9 H           5.2966    4.3179    1.0280 H       1  UNL1        0.0000
     10 H           3.5780    4.1309    1.4402 H       1  UNL1        0.0000
     11 P           4.5524    5.8952    2.7401 P.3     1  UNL1        0.0000
     12 B           2.9658    3.9263    4.6430 B       1  UNL1        0.0000
     13 O           2.3062    4.2162    3.4613 O.3     1  UNL1        0.0000
     14 C           0.8956    4.1302    3.6695 C.3     1  UNL1        0.0000
     15 C           0.7532    3.9548    5.2304 C.3     1  UNL1        0.0000
     16 O           2.0728    3.6025    5.6406 O.3     1  UNL1        0.0000
     17 C           0.3999    2.9140    2.8742 C.3     1  UNL1        0.0000
     18 H           0.6741    3.0505    1.8302 H       1  UNL1        0.0000
     19 H          -0.6796    2.8193    2.9437 H       1  UNL1        0.0000
     20 H           0.8662    1.9987    3.2301 H       1  UNL1        0.0000
     21 C           0.2169    5.3793    3.1111 C.3     1  UNL1        0.0000
     22 H           0.6317    6.2787    3.5521 H       1  UNL1        0.0000
     23 H          -0.8534    5.3391    3.2952 H       1  UNL1        0.0000
     24 H           0.3894    5.4273    2.0382 H       1  UNL1        0.0000
     25 C          -0.2057    2.8440    5.6639 C.3     1  UNL1        0.0000
     26 H           0.1091    1.8739    5.2916 H       1  UNL1        0.0000
     27 H          -1.2104    3.0580    5.3105 H       1  UNL1        0.0000
     28 H          -0.2195    2.7986    6.7505 H       1  UNL1        0.0000
     29 C           0.3638    5.2459    5.9600 C.3     1  UNL1        0.0000
     30 H           0.3942    5.0627    7.0324 H       1  UNL1        0.0000
     31 H          -0.6362    5.5664    5.6846 H       1  UNL1        0.0000
     32 H           1.0788    6.0332    5.7395 H       1  UNL1        0.0000
     33 C           3.6804    1.0397    6.3556 C.3     1  UNL1        0.0000
     34 H           2.6183    1.2113    6.2331 H       1  UNL1        0.0000
     35 H           3.8361    0.5698    7.3203 H       1  UNL1        0.0000
     36 H           4.0004    0.3364    5.5960 H       1  UNL1        0.0000
     37 C           6.5312    2.2152    6.3829 C.3     1  UNL1        0.0000
     38 H           6.8129    1.4421    5.6787 H       1  UNL1        0.0000
     39 H           6.7260    1.8219    7.3751 H       1  UNL1        0.0000
     40 H           7.1861    3.0680    6.2340 H       1  UNL1        0.0000
     41 C           4.0490    1.3273    2.6909 C.3     1  UNL1        0.0000
     42 H           4.4336    0.4940    3.2679 H       1  UNL1        0.0000
     43 H           4.2025    1.0935    1.6430 H       1  UNL1        0.0000
     44 H           2.9819    1.3908    2.8655 H       1  UNL1        0.0000
     45 C           6.8246    2.5625    3.1193 C.3     1  UNL1        0.0000
     46 H           7.4351    3.2683    3.6704 H       1  UNL1        0.0000
     47 H           7.1626    2.5672    2.0871 H       1  UNL1        0.0000
     48 H           7.0256    1.5711    3.5075 H       1  UNL1        0.0000
     49 C           3.9601    6.5770    8.3459 C.ar    1  UNL1        0.0000
     50 C           4.0009    6.3225    9.7138 C.ar    1  UNL1        0.0000
     51 H           4.5753    5.4862   10.0886 H       1  UNL1        0.0000
     52 C           3.3201    7.1432   10.5927 C.ar    1  UNL1        0.0000
     53 H           3.3524    6.9410   11.6539 H       1  UNL1        0.0000
     54 C           2.6010    8.2282   10.1158 C.ar    1  UNL1        0.0000
     55 H           2.0697    8.8676   10.8058 H       1  UNL1        0.0000
     56 C           2.5716    8.4953    8.7577 C.ar    1  UNL1        0.0000
     57 H           2.0204    9.3469    8.3862 H       1  UNL1        0.0000
     58 C           3.2511    7.6735    7.8751 C.ar    1  UNL1        0.0000
     59 H           3.2450    7.8691    6.8101 H       1  UNL1        0.0000
     60 C           6.4926    5.6182    7.9748 C.ar    1  UNL1        0.0000
     61 C           7.1427    4.6349    8.7073 C.ar    1  UNL1        0.0000
     62 H           6.6854    3.6692    8.8626 H       1  UNL1        0.0000
     63 C           8.3955    4.8834    9.2439 C.ar    1  UNL1        0.0000
     64 H           8.8966    4.1100    9.8091 H       1  UNL1        0.0000
     65 C           9.0067    6.1103    9.0581 C.ar    1  UNL1        0.0000
     66 H           9.9855    6.2957    9.4757 H       1  UNL1        0.0000
     67 C           8.3615    7.0991    8.3310 C.ar    1  UNL1        0.0000
     68 H           8.8352    8.0578    8.1798 H       1  UNL1        0.0000
     69 C           7.1148    6.8527    7.7929 C.ar    1  UNL1        0.0000
     70 H           6.6027    7.6118    7.2120 H       1  UNL1        0.0000
     71 C           3.2253    6.8244    1.8957 C.ar    1  UNL1        0.0000
     72 C           2.9040    6.6235    0.5583 C.ar    1  UNL1        0.0000
     73 H           3.4251    5.8740   -0.0204 H       1  UNL1        0.0000
     74 C           1.9227    7.3926   -0.0418 C.ar    1  UNL1        0.0000
     75 H           1.6720    7.2283   -1.0804 H       1  UNL1        0.0000
     76 C           1.2677    8.3774    0.6796 C.ar    1  UNL1        0.0000
     77 H           0.5034    8.9759    0.2055 H       1  UNL1        0.0000
     78 C           1.6014    8.5991    2.0055 C.ar    1  UNL1        0.0000
     79 H           1.1014    9.3757    2.5665 H       1  UNL1        0.0000
     80 C           2.5757    7.8249    2.6102 C.ar    1  UNL1        0.0000
     81 H           2.8500    7.9792    3.6477 H       1  UNL1        0.0000
     82 C           5.9770    6.7694    1.9914 C.ar    1  UNL1        0.0000
     83 C           7.1623    6.0981    1.7093 C.ar    1  UNL1        0.0000
     84 H           7.2322    5.0325    1.8737 H       1  UNL1        0.0000
     85 C           8.2630    6.7877    1.2356 C.ar    1  UNL1        0.0000
     86 H           9.1781    6.2544    1.0204 H       1  UNL1        0.0000
     87 C           8.1980    8.1580    1.0484 C.ar    1  UNL1        0.0000
     88 H           9.0599    8.6959    0.6812 H       1  UNL1        0.0000
     89 C           7.0285    8.8371    1.3462 C.ar    1  UNL1        0.0000
     90 H           6.9766    9.9083    1.2159 H       1  UNL1        0.0000
     91 C           5.9262    8.1502    1.8193 C.ar    1  UNL1        0.0000
     92 H           5.0195    8.6866    2.0627 H       1  UNL1        0.0000
@<TRIPOS>BOND
     1    75    74    1
     2    74    72   ar
     3    74    76   ar
     4    73    72    1
     5    77    76    1
     6    72    71   ar
     7    76    78   ar
     8    88    87    1
     9    86    85    1
    10     9     8    1
    11    87    85   ar
    12    87    89   ar
    13    90    89    1
    14    85    83   ar
    15    89    91   ar
    16    10     8    1
    17    43    41    1
    18    83    84    1
    19    83    82   ar
    20    91    82   ar
    21    91    92    1
    22    18    17    1
    23     8    11    1
    24     8     7    1
    25    71    80   ar
    26    71    11    1
    27    82    11    1
    28    78    79    1
    29    78    80   ar
    30    24    21    1
    31    47    45    1
    32    80    81    1
    33    41    44    1
    34    41     7    1
    35    41    42    1
    36    17    19    1
    37    17    20    1
    38    17    14    1
    39    21    23    1
    40    21    22    1
    41    21    14    1
    42    45     7    1
    43    45    48    1
    44    45    46    1
    45     7     1    1
    46    13    14    1
    47    13    12    1
    48    14    15    1
    49    12     1    1
    50    12    16    1
    51     1     2    1
    52    15    16    1
    53    15    25    1
    54    15    29    1
    55    26    25    1
    56    27    25    1
    57    36    33    1
    58    25    28    1
    59    38    37    1
    60    31    29    1
    61    32    29    1
    62    29    30    1
    63    34    33    1
    64    40    37    1
    65     2    33    1
    66     2    37    1
    67     2     3    1
    68    33    35    1
    69    37    39    1
    70    59    58    1
    71     6     3    1
    72     6    60    1
    73     6    49    1
    74    70    69    1
    75     3     4    1
    76     3     5    1
    77    69    60   ar
    78    69    67   ar
    79    58    49   ar
    80    58    56   ar
    81    60    61   ar
    82    68    67    1
    83    67    65   ar
    84    49    50   ar
    85    57    56    1
    86    61    62    1
    87    61    63   ar
    88    56    54   ar
    89    65    63   ar
    90    65    66    1
    91    63    64    1
    92    50    51    1
    93    50    52   ar
    94    54    52   ar
    95    54    55    1
    96    52    53    1
