@<TRIPOS>MOLECULE
1,2,5
 67 66 0 0 0
SMALL
GASTEIGER

@<TRIPOS>ATOM
      1 P           4.2529    0.9727    3.8237 P.3     1  UNL1        0.0000
      2 P          -0.9152    1.6187    3.1426 P.3     1  UNL1        0.0000
      3 SI          3.2921    3.8220    3.1697 Si      1  UNL1        0.0000
      4 SI          1.0634    3.1352    1.2474 Si      1  UNL1        0.0000
      5 N           2.0328    2.8041    2.6203 N.3     1  UNL1        0.0000
      6 C           4.4978    2.7329    4.2269 C.3     1  UNL1        0.0000
      7 C          -0.7075    2.3708    1.4835 C.3     1  UNL1        0.0000
      8 C           4.3687    4.5779    1.7762 C.3     1  UNL1        0.0000
      9 C           2.7732    5.2910    4.2863 C.3     1  UNL1        0.0000
     10 C           0.7963    5.0004    0.8978 C.3     1  UNL1        0.0000
     11 C           1.7808    2.4249   -0.3850 C.3     1  UNL1        0.0000
     12 C           5.3472    0.0840    5.0762 C.3     1  UNL1        0.0000
     13 C           5.0625    0.8271    2.1384 C.3     1  UNL1        0.0000
     14 C           4.4370   -0.2292    6.2678 C.3     1  UNL1        0.0000
     15 C           6.5739    0.8573    5.5512 C.3     1  UNL1        0.0000
     16 C           4.8066   -0.5664    1.5643 C.3     1  UNL1        0.0000
     17 C           6.5470    1.1698    2.0683 C.3     1  UNL1        0.0000
     18 C          -2.0871    0.2010    2.7407 C.3     1  UNL1        0.0000
     19 C          -1.9286    2.9286    4.0156 C.3     1  UNL1        0.0000
     20 C          -1.9832   -0.8869    3.8082 C.3     1  UNL1        0.0000
     21 C          -3.5300    0.6228    2.4883 C.3     1  UNL1        0.0000
     22 C          -2.2376    2.4918    5.4449 C.3     1  UNL1        0.0000
     23 C          -1.1069    4.2152    4.0442 C.3     1  UNL1        0.0000
     24 H           4.2380    2.8622    5.2790 H       1  UNL1        0.0000
     25 H           5.5384    3.0303    4.0976 H       1  UNL1        0.0000
     26 H          -0.8134    1.5713    0.7502 H       1  UNL1        0.0000
     27 H          -1.5002    3.0980    1.3018 H       1  UNL1        0.0000
     28 H           5.2687    5.0356    2.1724 H       1  UNL1        0.0000
     29 H           4.6661    3.8520    1.0277 H       1  UNL1        0.0000
     30 H           3.8071    5.3528    1.2704 H       1  UNL1        0.0000
     31 H           3.6413    5.8598    4.6052 H       1  UNL1        0.0000
     32 H           2.1204    5.9700    3.7489 H       1  UNL1        0.0000
     33 H           2.2495    4.9573    5.1762 H       1  UNL1        0.0000
     34 H           1.6332    5.3766    0.3232 H       1  UNL1        0.0000
     35 H          -0.1011    5.1820    0.3163 H       1  UNL1        0.0000
     36 H           0.7380    5.5909    1.8040 H       1  UNL1        0.0000
     37 H           1.9165    1.3494   -0.3387 H       1  UNL1        0.0000
     38 H           1.1246    2.6418   -1.2222 H       1  UNL1        0.0000
     39 H           2.7433    2.8769   -0.6024 H       1  UNL1        0.0000
     40 H           5.6728   -0.8570    4.6146 H       1  UNL1        0.0000
     41 H           4.4970    1.5522    1.5345 H       1  UNL1        0.0000
     42 H           4.0040    0.6910    6.6666 H       1  UNL1        0.0000
     43 H           3.6188   -0.8897    5.9810 H       1  UNL1        0.0000
     44 H           4.9989   -0.7138    7.0653 H       1  UNL1        0.0000
     45 H           7.1580    0.2283    6.2222 H       1  UNL1        0.0000
     46 H           7.2157    1.1566    4.7282 H       1  UNL1        0.0000
     47 H           6.2765    1.7456    6.1028 H       1  UNL1        0.0000
     48 H           3.7376   -0.7772    1.5278 H       1  UNL1        0.0000
     49 H           5.1967   -0.6307    0.5496 H       1  UNL1        0.0000
     50 H           5.3022   -1.3323    2.1606 H       1  UNL1        0.0000
     51 H           7.1407    0.4217    2.5896 H       1  UNL1        0.0000
     52 H           6.8684    1.1821    1.0276 H       1  UNL1        0.0000
     53 H           6.7546    2.1502    2.4897 H       1  UNL1        0.0000
     54 H          -1.6729   -0.2143    1.8116 H       1  UNL1        0.0000
     55 H          -2.8604    3.0961    3.4618 H       1  UNL1        0.0000
     56 H          -2.4127   -0.5634    4.7548 H       1  UNL1        0.0000
     57 H          -2.5131   -1.7830    3.4883 H       1  UNL1        0.0000
     58 H          -0.9349   -1.1513    3.9673 H       1  UNL1        0.0000
     59 H          -4.0056    0.9702    3.4028 H       1  UNL1        0.0000
     60 H          -3.5784    1.4144    1.7430 H       1  UNL1        0.0000
     61 H          -4.1013   -0.2261    2.1155 H       1  UNL1        0.0000
     62 H          -2.8444    3.2446    5.9466 H       1  UNL1        0.0000
     63 H          -2.7822    1.5497    5.4708 H       1  UNL1        0.0000
     64 H          -1.3072    2.3814    6.0026 H       1  UNL1        0.0000
     65 H          -0.1212    4.0217    4.4725 H       1  UNL1        0.0000
     66 H          -0.9775    4.6268    3.0473 H       1  UNL1        0.0000
     67 H          -1.6053    4.9629    4.6601 H       1  UNL1        0.0000
@<TRIPOS>BOND
     1    38    11    1
     2    39    11    1
     3    11    37    1
     4    11     4    1
     5    35    10    1
     6    34    10    1
     7    49    16    1
     8    26     7    1
     9    10     4    1
    10    10    36    1
    11    52    17    1
    12    29     8    1
    13     4     7    1
    14     4     5    1
    15    30     8    1
    16    27     7    1
    17     7     2    1
    18    48    16    1
    19    41    13    1
    20    16    13    1
    21    16    50    1
    22    60    21    1
    23     8    28    1
    24     8     3    1
    25    54    18    1
    26    17    13    1
    27    17    53    1
    28    17    51    1
    29    61    21    1
    30    13     1    1
    31    21    18    1
    32    21    59    1
    33     5     3    1
    34    18     2    1
    35    18    20    1
    36    66    23    1
    37     2    19    1
    38     3     6    1
    39     3     9    1
    40    55    19    1
    41    57    20    1
    42    32     9    1
    43    20    58    1
    44    20    56    1
    45     1     6    1
    46     1    12    1
    47    19    23    1
    48    19    22    1
    49    23    65    1
    50    23    67    1
    51    25     6    1
    52     6    24    1
    53     9    31    1
    54     9    33    1
    55    40    12    1
    56    46    15    1
    57    12    15    1
    58    12    14    1
    59    22    63    1
    60    22    62    1
    61    22    64    1
    62    15    47    1
    63    15    45    1
    64    43    14    1
    65    14    42    1
    66    14    44    1
