@<TRIPOS>MOLECULE
1,2,5
 79 78 0 0 0
SMALL
GASTEIGER

@<TRIPOS>ATOM
      1 P          16.3277    0.3435   19.8215 P.3     1  UNL1        0.0000
      2 P          13.6086    3.7368   18.1987 P.3     1  UNL1        0.0000
      3 SI         15.1103    1.8194   22.1802 Si      1  UNL1        0.0000
      4 SI         12.5826    2.9021   20.9352 Si      1  UNL1        0.0000
      5 N          14.1820    2.2637   20.7919 N.3     1  UNL1        0.0000
      6 C          16.1002    3.3188   22.8522 C.3     1  UNL1        0.0000
      7 H          15.4348    4.1154   23.1654 H       1  UNL1        0.0000
      8 H          16.7768    3.7270   22.1062 H       1  UNL1        0.0000
      9 H          16.6925    3.0299   23.7150 H       1  UNL1        0.0000
     10 C          14.1134    1.0780   23.6275 C.3     1  UNL1        0.0000
     11 H          13.5578    1.8599   24.1292 H       1  UNL1        0.0000
     12 H          14.7739    0.6263   24.3601 H       1  UNL1        0.0000
     13 H          13.4033    0.3243   23.3070 H       1  UNL1        0.0000
     14 C          16.4299    0.5385   21.6350 C.3     1  UNL1        0.0000
     15 H          17.4067    0.9525   21.8733 H       1  UNL1        0.0000
     16 H          16.3473   -0.4243   22.1351 H       1  UNL1        0.0000
     17 C          15.3644   -1.2666   19.5976 C.3     1  UNL1        0.0000
     18 C          14.0830   -1.0797   20.4147 C.3     1  UNL1        0.0000
     19 H          13.3539   -1.8452   20.1497 H       1  UNL1        0.0000
     20 H          13.6508   -0.0960   20.1986 H       1  UNL1        0.0000
     21 H          14.2731   -1.1476   21.4825 H       1  UNL1        0.0000
     22 C          16.0761   -2.5441   20.0295 C.3     1  UNL1        0.0000
     23 H          15.3753   -3.3788   19.9973 H       1  UNL1        0.0000
     24 H          16.4509   -2.4619   21.0482 H       1  UNL1        0.0000
     25 H          16.9049   -2.7809   19.3671 H       1  UNL1        0.0000
     26 C          14.9545   -1.3418   18.1245 C.3     1  UNL1        0.0000
     27 H          14.2881   -2.1881   17.9579 H       1  UNL1        0.0000
     28 H          15.8122   -1.4465   17.4660 H       1  UNL1        0.0000
     29 H          14.4193   -0.4215   17.8494 H       1  UNL1        0.0000
     30 C          18.1499    0.1398   19.3380 C.3     1  UNL1        0.0000
     31 C          18.9944   -0.6759   20.3174 C.3     1  UNL1        0.0000
     32 H          20.0229   -0.7009   19.9572 H       1  UNL1        0.0000
     33 H          18.6425   -1.7003   20.3929 H       1  UNL1        0.0000
     34 H          19.0059   -0.2410   21.3132 H       1  UNL1        0.0000
     35 C          18.3000   -0.4546   17.9381 C.3     1  UNL1        0.0000
     36 H          19.3319   -0.3444   17.6042 H       1  UNL1        0.0000
     37 H          17.6605    0.0647   17.2279 H       1  UNL1        0.0000
     38 H          18.0598   -1.5154   17.9291 H       1  UNL1        0.0000
     39 C          18.6440    1.5920   19.3117 C.3     1  UNL1        0.0000
     40 H          19.6909    1.6379   19.0150 H       1  UNL1        0.0000
     41 H          18.5454    2.0607   20.2914 H       1  UNL1        0.0000
     42 H          18.0584    2.1709   18.5921 H       1  UNL1        0.0000
     43 C          12.2845    4.0372   22.4403 C.3     1  UNL1        0.0000
     44 H          13.1135    4.7090   22.6311 H       1  UNL1        0.0000
     45 H          12.1387    3.4360   23.3288 H       1  UNL1        0.0000
     46 H          11.3908    4.6372   22.3043 H       1  UNL1        0.0000
     47 C          11.2828    1.4935   21.0009 C.3     1  UNL1        0.0000
     48 H          11.3163    0.8642   20.1158 H       1  UNL1        0.0000
     49 H          10.2804    1.9028   21.0794 H       1  UNL1        0.0000
     50 H          11.4445    0.8581   21.8642 H       1  UNL1        0.0000
     51 C          12.1911    3.8931   19.3403 C.3     1  UNL1        0.0000
     52 H          11.3293    3.4271   18.8683 H       1  UNL1        0.0000
     53 H          11.9472    4.9390   19.5163 H       1  UNL1        0.0000
     54 C          14.5527    5.3568   18.4301 C.3     1  UNL1        0.0000
     55 C          13.8605    6.6186   17.9264 C.3     1  UNL1        0.0000
     56 H          14.4236    7.4948   18.2487 H       1  UNL1        0.0000
     57 H          12.8526    6.7030   18.3288 H       1  UNL1        0.0000
     58 H          13.8093    6.6380   16.8407 H       1  UNL1        0.0000
     59 C          14.7987    5.4621   19.9376 C.3     1  UNL1        0.0000
     60 H          15.5456    6.2287   20.1433 H       1  UNL1        0.0000
     61 H          15.1695    4.5030   20.3160 H       1  UNL1        0.0000
     62 H          13.8907    5.7198   20.4760 H       1  UNL1        0.0000
     63 C          15.9177    5.1782   17.7603 C.3     1  UNL1        0.0000
     64 H          16.5583    6.0352   17.9678 H       1  UNL1        0.0000
     65 H          15.8333    5.0667   16.6828 H       1  UNL1        0.0000
     66 H          16.4043    4.2779   18.1624 H       1  UNL1        0.0000
     67 C          12.7530    3.6644   16.5080 C.3     1  UNL1        0.0000
     68 C          12.3211    2.1947   16.4234 C.3     1  UNL1        0.0000
     69 H          11.8297    1.9912   15.4730 H       1  UNL1        0.0000
     70 H          11.6300    1.9387   17.2271 H       1  UNL1        0.0000
     71 H          13.1972    1.5451   16.5017 H       1  UNL1        0.0000
     72 C          13.7284    3.9544   15.3679 C.3     1  UNL1        0.0000
     73 H          13.2692    3.6826   14.4173 H       1  UNL1        0.0000
     74 H          14.6381    3.3689   15.4806 H       1  UNL1        0.0000
     75 H          13.9844    5.0106   15.3227 H       1  UNL1        0.0000
     76 C          11.5310    4.5713   16.3598 C.3     1  UNL1        0.0000
     77 H          11.0992    4.4194   15.3705 H       1  UNL1        0.0000
     78 H          11.7973    5.6200   16.4498 H       1  UNL1        0.0000
     79 H          10.7603    4.3472   17.0924 H       1  UNL1        0.0000
@<TRIPOS>BOND
     1    73    72    1
     2    75    72    1
     3    72    74    1
     4    72    67    1
     5    77    76    1
     6    69    68    1
     7    76    78    1
     8    76    67    1
     9    76    79    1
    10    68    71    1
    11    68    67    1
    12    68    70    1
    13    67     2    1
    14    65    63    1
    15    58    55    1
    16    37    35    1
    17    28    26    1
    18    36    35    1
    19    63    64    1
    20    63    66    1
    21    63    54    1
    22    29    26    1
    23    55    56    1
    24    55    57    1
    25    55    54    1
    26    38    35    1
    27    35    30    1
    28    27    26    1
    29    26    17    1
    30     2    54    1
    31     2    51    1
    32    54    59    1
    33    42    39    1
    34    52    51    1
    35    40    39    1
    36    39    30    1
    37    39    41    1
    38    30     1    1
    39    30    31    1
    40    51    53    1
    41    51     4    1
    42    25    22    1
    43    17     1    1
    44    17    22    1
    45    17    18    1
    46     1    14    1
    47    59    60    1
    48    59    61    1
    49    59    62    1
    50    32    31    1
    51    23    22    1
    52    22    24    1
    53    48    47    1
    54    19    18    1
    55    20    18    1
    56    31    33    1
    57    31    34    1
    58    18    21    1
    59     5     4    1
    60     5     3    1
    61     4    47    1
    62     4    43    1
    63    47    49    1
    64    47    50    1
    65    14    15    1
    66    14    16    1
    67    14     3    1
    68     8     6    1
    69     3     6    1
    70     3    10    1
    71    46    43    1
    72    43    44    1
    73    43    45    1
    74     6     7    1
    75     6     9    1
    76    13    10    1
    77    10    11    1
    78    10    12    1
