@<TRIPOS>MOLECULE
1,2,3
 67 67 0 0 0
SMALL
GASTEIGER

@<TRIPOS>ATOM
      1 P           1.1407    2.9758   12.6810 P.3     1  UNL1       -0.0889
      2 P           0.1618    6.2489   15.7104 P.3     1  UNL1       -0.0889
      3 N           2.1397    4.2877   14.6386 N.ar    1  UNL1       -0.2558
      4 C           3.1329    3.4194   14.2728 C.ar    1  UNL1        0.0459
      5 C           4.3480    3.8741   14.7236 C.ar    1  UNL1       -0.0384
      6 H           5.3035    3.4016   14.5906 H       1  UNL1        0.0636
      7 C           4.0926    5.0917   15.3868 C.ar    1  UNL1       -0.0384
      8 H           4.8180    5.7296   15.8571 H       1  UNL1        0.0636
      9 C           2.7361    5.3187   15.2983 C.ar    1  UNL1        0.0459
     10 C           2.7269    2.3022   13.3699 C.3     1  UNL1        0.0111
     11 H           2.5085    1.3932   13.9353 H       1  UNL1        0.0377
     12 H           3.4875    2.0699   12.6228 H       1  UNL1        0.0377
     13 C           1.7203    4.2014   11.3247 C.3     1  UNL1       -0.0165
     14 C           3.0219    3.8054   10.6305 C.3     1  UNL1       -0.0561
     15 H           2.9682    2.8170   10.1842 H       1  UNL1        0.0238
     16 H           3.8541    3.8350   11.3293 H       1  UNL1        0.0238
     17 H           3.2327    4.5213    9.8360 H       1  UNL1        0.0238
     18 C           0.6080    4.3940   10.2919 C.3     1  UNL1       -0.0561
     19 H           0.8491    5.2414    9.6497 H       1  UNL1        0.0238
     20 H          -0.3365    4.6061   10.7881 H       1  UNL1        0.0238
     21 H           0.4922    3.5250    9.6512 H       1  UNL1        0.0238
     22 C           1.9285    5.5526   12.0142 C.3     1  UNL1       -0.0561
     23 H           2.8190    5.5447   12.6346 H       1  UNL1        0.0238
     24 H           1.0717    5.7886   12.6457 H       1  UNL1        0.0238
     25 H           2.0432    6.3374   11.2668 H       1  UNL1        0.0238
     26 C           0.3762    1.4386   11.8407 C.3     1  UNL1       -0.0165
     27 C           1.1514    0.8685   10.6562 C.3     1  UNL1       -0.0561
     28 H           2.1889    0.6802   10.9247 H       1  UNL1        0.0238
     29 H           1.1242    1.5257    9.7919 H       1  UNL1        0.0238
     30 H           0.7052   -0.0818   10.3613 H       1  UNL1        0.0238
     31 C          -1.0632    1.7753   11.4541 C.3     1  UNL1       -0.0561
     32 H          -1.1187    2.4272   10.5892 H       1  UNL1        0.0238
     33 H          -1.5514    2.2648   12.2944 H       1  UNL1        0.0238
     34 H          -1.6105    0.8636   11.2137 H       1  UNL1        0.0238
     35 C           0.3096    0.3758   12.9406 C.3     1  UNL1       -0.0561
     36 H          -0.3813   -0.4160   12.6523 H       1  UNL1        0.0238
     37 H          -0.0481    0.8244   13.8649 H       1  UNL1        0.0238
     38 H           1.2778   -0.0875   13.1139 H       1  UNL1        0.0238
     39 C           1.9886    6.5671   15.6234 C.3     1  UNL1        0.0111
     40 H           2.1558    7.2759   14.8050 H       1  UNL1        0.0377
     41 H           2.3645    7.0262   16.5403 H       1  UNL1        0.0377
     42 C          -0.4606    8.0115   15.2780 C.3     1  UNL1       -0.0165
     43 C          -0.3506    8.1013   13.7512 C.3     1  UNL1       -0.0561
     44 H          -0.9004    7.2919   13.2784 H       1  UNL1        0.0238
     45 H           0.6854    8.0535   13.4232 H       1  UNL1        0.0238
     46 H          -0.7664    9.0460   13.4013 H       1  UNL1        0.0238
     47 C          -1.9365    8.1354   15.6524 C.3     1  UNL1       -0.0561
     48 H          -2.3695    9.0187   15.1823 H       1  UNL1        0.0238
     49 H          -2.0638    8.2387   16.7269 H       1  UNL1        0.0238
     50 H          -2.4880    7.2621   15.3115 H       1  UNL1        0.0238
     51 C           0.3127    9.1837   15.8820 C.3     1  UNL1       -0.0561
     52 H          -0.0987   10.1145   15.4897 H       1  UNL1        0.0238
     53 H           1.3659    9.1538   15.6184 H       1  UNL1        0.0238
     54 H           0.2274    9.2161   16.9622 H       1  UNL1        0.0238
     55 C          -0.0173    5.9640   17.5878 C.3     1  UNL1       -0.0165
     56 C           0.8869    4.7570   17.8525 C.3     1  UNL1       -0.0561
     57 H           0.7121    4.3626   18.8532 H       1  UNL1        0.0238
     58 H           1.9398    5.0133   17.7687 H       1  UNL1        0.0238
     59 H           0.6657    3.9712   17.1269 H       1  UNL1        0.0238
     60 C          -1.4582    5.5404   17.8681 C.3     1  UNL1       -0.0561
     61 H          -1.5464    5.1641   18.8872 H       1  UNL1        0.0238
     62 H          -1.7509    4.7527   17.1781 H       1  UNL1        0.0238
     63 H          -2.1486    6.3724   17.7663 H       1  UNL1        0.0238
     64 C           0.3647    7.1027   18.5306 C.3     1  UNL1       -0.0561
     65 H          -0.3741    7.9000   18.5083 H       1  UNL1        0.0238
     66 H           1.3424    7.5188   18.3007 H       1  UNL1        0.0238
     67 H           0.4021    6.7199   19.5509 H       1  UNL1        0.0238
@<TRIPOS>BOND
     1    19    18    1
     2    21    18    1
     3    29    27    1
     4    17    14    1
     5    15    14    1
     6    18    20    1
     7    18    13    1
     8    30    27    1
     9    32    31    1
    10    14    13    1
    11    14    16    1
    12    27    28    1
    13    27    26    1
    14    34    31    1
    15    25    22    1
    16    13    22    1
    17    13     1    1
    18    31    26    1
    19    31    33    1
    20    26     1    1
    21    26    35    1
    22    22    23    1
    23    22    24    1
    24    12    10    1
    25    36    35    1
    26     1    10    1
    27    35    38    1
    28    35    37    1
    29    44    43    1
    30    10    11    1
    31    10     4    1
    32    46    43    1
    33    45    43    1
    34    43    42    1
    35     4     3   ar
    36     4     5   ar
    37     6     5    1
    38     3     9   ar
    39     5     7   ar
    40    40    39    1
    41    48    47    1
    42    42    47    1
    43    42     2    1
    44    42    51    1
    45     9     7   ar
    46     9    39    1
    47    50    47    1
    48     7     8    1
    49    52    51    1
    50    53    51    1
    51    39     2    1
    52    39    41    1
    53    47    49    1
    54     2    55    1
    55    51    54    1
    56    59    56    1
    57    62    60    1
    58    55    56    1
    59    55    60    1
    60    55    64    1
    61    63    60    1
    62    58    56    1
    63    56    57    1
    64    60    61    1
    65    66    64    1
    66    65    64    1
    67    64    67    1
