@<TRIPOS>MOLECULE
1,2,3
 83 87 0 0 0
SMALL
GASTEIGER

@<TRIPOS>ATOM
      1 P           0.4824    8.4319   17.7144 P.3     1  UNL1       -0.0937
      2 P           2.9565    7.2889   14.2772 P.3     1  UNL1       -0.0937
      3 N           0.7390    8.7078   15.0167 N.ar    1  UNL1       -0.2558
      4 C          -0.7518    9.4517   16.8078 C.3     1  UNL1        0.0107
      5 H          -1.6802    8.8736   16.7526 H       1  UNL1        0.0377
      6 H          -0.9660   10.3983   17.3094 H       1  UNL1        0.0377
      7 C          -0.4678    7.8408   19.2208 C.3     1  UNL1       -0.0199
      8 H          -0.7697    6.8219   18.9392 H       1  UNL1        0.0349
      9 C          -1.7462    8.6040   19.5721 C.3     1  UNL1       -0.0463
     10 H          -1.5093    9.6240   19.8818 H       1  UNL1        0.0271
     11 H          -2.4146    8.6532   18.7127 H       1  UNL1        0.0271
     12 C          -0.1837    9.6189   15.4409 C.ar    1  UNL1        0.0459
     13 C           1.6561    9.7289   18.3810 C.3     1  UNL1       -0.0199
     14 H           2.2888    9.2041   19.1116 H       1  UNL1        0.0349
     15 C           1.0082    8.9803   13.7077 C.ar    1  UNL1        0.0459
     16 C           0.2923   10.0838   13.3060 C.ar    1  UNL1       -0.0384
     17 H           0.3029   10.5385   12.3326 H       1  UNL1        0.0636
     18 C           1.0946   10.9901   19.0333 C.3     1  UNL1       -0.0463
     19 H           0.4557   10.7430   19.8826 H       1  UNL1        0.0271
     20 H           0.4975   11.5508   18.3115 H       1  UNL1        0.0271
     21 C          -2.4778    7.8830   20.7045 C.3     1  UNL1       -0.0525
     22 H          -3.3808    8.4392   20.9662 H       1  UNL1        0.0265
     23 H          -2.7838    6.8960   20.3507 H       1  UNL1        0.0265
     24 C          -0.4740   10.4940   14.4198 C.ar    1  UNL1       -0.0384
     25 H          -1.1570   11.3226   14.4586 H       1  UNL1        0.0636
     26 C           1.8694    8.0106   12.9792 C.3     1  UNL1        0.0107
     27 H           2.4104    8.4560   12.1449 H       1  UNL1        0.0377
     28 H           1.2510    7.1875   12.5999 H       1  UNL1        0.0377
     29 C           0.4212    7.7496   20.4602 C.3     1  UNL1       -0.0463
     30 H           1.3599    7.2542   20.2108 H       1  UNL1        0.0271
     31 H           0.6629    8.7501   20.8236 H       1  UNL1        0.0271
     32 C          -0.3039    6.9947   21.5703 C.3     1  UNL1       -0.0525
     33 H          -0.5457    5.9842   21.2313 H       1  UNL1        0.0265
     34 H           0.3416    6.9111   22.4482 H       1  UNL1        0.0265
     35 C           4.0883    6.1764   11.8756 C.3     1  UNL1       -0.0463
     36 H           3.1887    6.3882   11.2962 H       1  UNL1        0.0271
     37 H           4.7401    7.0490   11.8164 H       1  UNL1        0.0271
     38 C           5.7880    7.9116   14.4030 C.3     1  UNL1       -0.0463
     39 H           6.0426    7.4767   13.4361 H       1  UNL1        0.0271
     40 H           5.8276    7.1131   15.1484 H       1  UNL1        0.0271
     41 C           4.3934    8.5407   14.3594 C.3     1  UNL1       -0.0199
     42 H           4.2391    9.0305   15.3296 H       1  UNL1        0.0349
     43 C           3.7055    5.8592   13.3223 C.3     1  UNL1       -0.0199
     44 H           4.6103    5.5584   13.8636 H       1  UNL1        0.0349
     45 C           3.4206    3.4484   12.7018 C.3     1  UNL1       -0.0525
     46 H           2.7245    2.6074   12.6982 H       1  UNL1        0.0265
     47 H           4.2865    3.1648   13.3065 H       1  UNL1        0.0265
     48 C           5.4189   10.7146   13.6445 C.3     1  UNL1       -0.0525
     49 H           5.3978   11.4978   12.8836 H       1  UNL1        0.0265
     50 H           5.1839   11.1806   14.6049 H       1  UNL1        0.0265
     51 C           3.1341   12.2645   18.3199 C.3     1  UNL1       -0.0530
     52 H           3.9573   12.8952   18.6625 H       1  UNL1        0.0265
     53 H           2.5472   12.8408   17.6006 H       1  UNL1        0.0265
     54 C           2.5390   10.1150   17.1956 C.3     1  UNL1       -0.0463
     55 H           1.9411   10.6284   16.4379 H       1  UNL1        0.0271
     56 H           2.9273    9.1814   16.7483 H       1  UNL1        0.0271
     57 C           2.2480   11.8775   19.5002 C.3     1  UNL1       -0.0525
     58 H           1.8514   12.7767   19.9773 H       1  UNL1        0.0265
     59 H           2.8451   11.3397   20.2417 H       1  UNL1        0.0265
     60 C          -1.5903    7.7280   21.9352 C.3     1  UNL1       -0.0530
     61 H          -1.3421    8.7154   22.3330 H       1  UNL1        0.0265
     62 H          -2.1269    7.1809   22.7131 H       1  UNL1        0.0265
     63 C           2.7462    4.6724   13.3154 C.3     1  UNL1       -0.0463
     64 H           1.8583    4.9219   12.7325 H       1  UNL1        0.0271
     65 H           2.4123    4.4560   14.3295 H       1  UNL1        0.0271
     66 C           3.6850   11.0153   17.6379 C.3     1  UNL1       -0.0525
     67 H           4.2939   11.3027   16.7769 H       1  UNL1        0.0265
     68 H           4.3249   10.4735   18.3394 H       1  UNL1        0.0265
     69 C           4.7925    4.9694   11.2575 C.3     1  UNL1       -0.0525
     70 H           5.0830    5.1989   10.2295 H       1  UNL1        0.0265
     71 H           5.7036    4.7485   11.8200 H       1  UNL1        0.0265
     72 C           4.3598    9.6616   13.3195 C.3     1  UNL1       -0.0463
     73 H           3.3777   10.1384   13.3206 H       1  UNL1        0.0271
     74 H           4.5532    9.2652   12.3205 H       1  UNL1        0.0271
     75 C           3.8745    3.7510   11.2771 C.3     1  UNL1       -0.0530
     76 H           4.3929    2.8868   10.8562 H       1  UNL1        0.0265
     77 H           2.9978    3.9511   10.6571 H       1  UNL1        0.0265
     78 C           6.8321    8.9727   14.7481 C.3     1  UNL1       -0.0525
     79 H           6.6208    9.3894   15.7365 H       1  UNL1        0.0265
     80 H           7.8234    8.5146   14.7840 H       1  UNL1        0.0265
     81 C           6.8093   10.0922   13.7134 C.3     1  UNL1       -0.0530
     82 H           7.0757    9.6866   12.7344 H       1  UNL1        0.0265
     83 H           7.5476   10.8548   13.9706 H       1  UNL1        0.0265
@<TRIPOS>BOND
     1    70    69    1
     2    77    75    1
     3    76    75    1
     4    69    75    1
     5    69    71    1
     6    69    35    1
     7    75    45    1
     8    36    35    1
     9    37    35    1
    10    35    43    1
    11    27    26    1
    12    74    72    1
    13    17    16    1
    14    28    26    1
    15    46    45    1
    16    45    47    1
    17    45    63    1
    18    64    63    1
    19    82    81    1
    20    49    48    1
    21    26    15    1
    22    26     2    1
    23    16    15   ar
    24    16    24   ar
    25    63    43    1
    26    63    65    1
    27    72    73    1
    28    72    48    1
    29    72    41    1
    30    43    44    1
    31    43     2    1
    32    39    38    1
    33    48    81    1
    34    48    50    1
    35    15     3   ar
    36    81    83    1
    37    81    78    1
    38     2    41    1
    39    41    38    1
    40    41    42    1
    41    38    78    1
    42    38    40    1
    43    24    25    1
    44    24    12   ar
    45    78    80    1
    46    78    79    1
    47     3    12   ar
    48    12     4    1
    49    55    54    1
    50    56    54    1
    51     5     4    1
    52    67    66    1
    53     4     6    1
    54     4     1    1
    55    54    66    1
    56    54    13    1
    57    53    51    1
    58    66    51    1
    59    66    68    1
    60     1    13    1
    61     1     7    1
    62    20    18    1
    63    51    52    1
    64    51    57    1
    65    13    18    1
    66    13    14    1
    67    11     9    1
    68     8     7    1
    69    18    57    1
    70    18    19    1
    71     7     9    1
    72     7    29    1
    73    57    58    1
    74    57    59    1
    75     9    10    1
    76     9    21    1
    77    30    29    1
    78    23    21    1
    79    29    31    1
    80    29    32    1
    81    21    22    1
    82    21    60    1
    83    33    32    1
    84    32    60    1
    85    32    34    1
    86    60    61    1
    87    60    62    1
