@<TRIPOS>MOLECULE
1,2,3
 83 87 0 0 0
SMALL
GASTEIGER

@<TRIPOS>ATOM
      1 P          11.1563    3.0017   17.3322 P.3     1  UNL1       -0.0937
      2 P          13.9373    1.5118   14.3666 P.3     1  UNL1       -0.0937
      3 N          12.7402    0.9133   16.7075 N.ar    1  UNL1       -0.2558
      4 C          13.6617   -0.0611   16.4798 C.ar    1  UNL1        0.0459
      5 C          15.2302    1.8471   13.0601 C.3     1  UNL1       -0.0199
      6 H          15.2592    0.9634   12.4059 H       1  UNL1        0.0349
      7 C          13.3969   -1.1414   17.2915 C.ar    1  UNL1       -0.0384
      8 H          13.9511   -2.0604   17.3417 H       1  UNL1        0.0636
      9 C          11.7938    3.8277   18.8763 C.3     1  UNL1       -0.0199
     10 H          10.9822    3.8475   19.6152 H       1  UNL1        0.0349
     11 C          11.8768    0.4573   17.6547 C.ar    1  UNL1        0.0459
     12 C          12.2166    5.2576   18.5397 C.3     1  UNL1       -0.0463
     13 H          12.9579    5.2300   17.7366 H       1  UNL1        0.0271
     14 H          11.3525    5.8201   18.1782 H       1  UNL1        0.0271
     15 C          14.6983    0.2101   15.4378 C.3     1  UNL1        0.0107
     16 H          14.9860   -0.6822   14.8763 H       1  UNL1        0.0377
     17 H          15.5990    0.6417   15.8896 H       1  UNL1        0.0377
     18 C          14.8076    3.0680   12.2441 C.3     1  UNL1       -0.0463
     19 H          13.8171    2.9164   11.8110 H       1  UNL1        0.0271
     20 H          14.7385    3.9301   12.9083 H       1  UNL1        0.0271
     21 C          12.6559    0.6230   13.3442 C.3     1  UNL1       -0.0199
     22 H          12.5901    1.2050   12.4138 H       1  UNL1        0.0349
     23 C          12.2522   -0.8087   18.0459 C.ar    1  UNL1       -0.0384
     24 H          11.7688   -1.4265   18.7798 H       1  UNL1        0.0636
     25 C           9.5145    3.8497   17.0384 C.3     1  UNL1       -0.0199
     26 H           9.7812    4.8069   16.5730 H       1  UNL1        0.0349
     27 C          12.9561    3.0363   19.4779 C.3     1  UNL1       -0.0463
     28 H          12.6227    2.0394   19.7709 H       1  UNL1        0.0271
     29 H          13.7430    2.9100   18.7354 H       1  UNL1        0.0271
     30 C          16.6224    2.0715   13.6463 C.3     1  UNL1       -0.0463
     31 H          16.5892    2.9064   14.3478 H       1  UNL1        0.0271
     32 H          16.9547    1.1834   14.1876 H       1  UNL1        0.0271
     33 C          10.7112    1.3298   18.0000 C.3     1  UNL1        0.0107
     34 H          10.5042    1.3623   19.0739 H       1  UNL1        0.0377
     35 H           9.8107    0.9671   17.4931 H       1  UNL1        0.0377
     36 C          12.8137    5.9611   19.7554 C.3     1  UNL1       -0.0525
     37 H          13.1390    6.9653   19.4760 H       1  UNL1        0.0265
     38 H          12.0504    6.0609   20.5319 H       1  UNL1        0.0265
     39 C          17.6290    2.3834   12.5401 C.3     1  UNL1       -0.0525
     40 H          18.6122    2.5579   12.9823 H       1  UNL1        0.0265
     41 H          17.7117    1.5232   11.8704 H       1  UNL1        0.0265
     42 C          11.3093    0.7371   14.0628 C.3     1  UNL1       -0.0463
     43 H          11.3155    0.1037   14.9518 H       1  UNL1        0.0271
     44 H          11.1489    1.7868   14.3797 H       1  UNL1        0.0271
     45 C           8.6441    4.1274   18.2626 C.3     1  UNL1       -0.0463
     46 H           8.3576    3.1856   18.7373 H       1  UNL1        0.0271
     47 H           9.1822    4.7310   18.9946 H       1  UNL1        0.0271
     48 C           8.7148    3.0454   16.0135 C.3     1  UNL1       -0.0463
     49 H           9.3447    2.8356   15.1472 H       1  UNL1        0.0271
     50 H           8.4018    2.0928   16.4477 H       1  UNL1        0.0271
     51 C          13.5326    3.7611   20.6913 C.3     1  UNL1       -0.0525
     52 H          14.3719    3.1899   21.0932 H       1  UNL1        0.0265
     53 H          12.7722    3.8314   21.4736 H       1  UNL1        0.0265
     54 C          17.1927    3.6053   11.7391 C.3     1  UNL1       -0.0530
     55 H          17.1529    4.4736   12.4002 H       1  UNL1        0.0265
     56 H          17.9180    3.8131   10.9498 H       1  UNL1        0.0265
     57 C          12.9146   -0.8387   12.9893 C.3     1  UNL1       -0.0463
     58 H          13.8807   -0.9557   12.4919 H       1  UNL1        0.0271
     59 H          12.9242   -1.4378   13.9021 H       1  UNL1        0.0271
     60 C          15.8121    3.3680   11.1373 C.3     1  UNL1       -0.0525
     61 H          15.8582    2.5264   10.4412 H       1  UNL1        0.0265
     62 H          15.4842    4.2476   10.5793 H       1  UNL1        0.0265
     63 C           7.4675    3.8111   15.5842 C.3     1  UNL1       -0.0525
     64 H           7.7635    4.7479   15.1091 H       1  UNL1        0.0265
     65 H           6.9054    3.2245   14.8542 H       1  UNL1        0.0265
     66 C          13.9908    5.1637   20.3060 C.3     1  UNL1       -0.0530
     67 H          14.4125    5.6720   21.1757 H       1  UNL1        0.0265
     68 H          14.7701    5.0952   19.5434 H       1  UNL1        0.0265
     69 C          10.1868    0.2710   13.1426 C.3     1  UNL1       -0.0525
     70 H          10.1523    0.9014   12.2505 H       1  UNL1        0.0265
     71 H           9.2228    0.3554   13.6489 H       1  UNL1        0.0265
     72 C           7.3899    4.8912   17.8374 C.3     1  UNL1       -0.0525
     73 H           6.7669    5.0893   18.7127 H       1  UNL1        0.0265
     74 H           7.6872    5.8524   17.4102 H       1  UNL1        0.0265
     75 C          10.4348   -1.1814   12.7380 C.3     1  UNL1       -0.0530
     76 H           9.6502   -1.5184   12.0573 H       1  UNL1        0.0265
     77 H          10.3978   -1.8109   13.6299 H       1  UNL1        0.0265
     78 C           6.5944    4.1085   16.7987 C.3     1  UNL1       -0.0530
     79 H           5.7155    4.6813   16.4965 H       1  UNL1        0.0265
     80 H           6.2473    3.1698   17.2381 H       1  UNL1        0.0265
     81 C          11.7995   -1.3383   12.0708 C.3     1  UNL1       -0.0525
     82 H          11.8153   -0.7672   11.1388 H       1  UNL1        0.0265
     83 H          11.9683   -2.3880   11.8208 H       1  UNL1        0.0265
@<TRIPOS>BOND
     1    61    60    1
     2    62    60    1
     3    56    54    1
     4    60    54    1
     5    60    18    1
     6    82    81    1
     7    54    55    1
     8    54    39    1
     9    19    18    1
    10    83    81    1
    11    41    39    1
    12    76    75    1
    13    81    75    1
    14    81    57    1
    15    18    20    1
    16    18     5    1
    17    70    69    1
    18     6     5    1
    19    22    21    1
    20    58    57    1
    21    39    40    1
    22    39    30    1
    23    75    69    1
    24    75    77    1
    25    57    21    1
    26    57    59    1
    27     5    30    1
    28     5     2    1
    29    69    71    1
    30    69    42    1
    31    21    42    1
    32    21     2    1
    33    30    32    1
    34    30    31    1
    35    42    44    1
    36    42    43    1
    37     2    15    1
    38    65    63    1
    39    16    15    1
    40    64    63    1
    41    49    48    1
    42    15    17    1
    43    15     4    1
    44    63    48    1
    45    63    78    1
    46    48    50    1
    47    48    25    1
    48     4     3   ar
    49     4     7   ar
    50    79    78    1
    51    26    25    1
    52     3    11   ar
    53    78    80    1
    54    78    72    1
    55    25     1    1
    56    25    45    1
    57     7     8    1
    58     7    23   ar
    59     1    33    1
    60     1     9    1
    61    74    72    1
    62    35    33    1
    63    11    33    1
    64    11    23   ar
    65    13    12    1
    66    72    45    1
    67    72    73    1
    68    33    34    1
    69    23    24    1
    70    14    12    1
    71    45    46    1
    72    45    47    1
    73    12     9    1
    74    12    36    1
    75    29    27    1
    76     9    27    1
    77     9    10    1
    78    37    36    1
    79    27    28    1
    80    27    51    1
    81    68    66    1
    82    36    66    1
    83    36    38    1
    84    66    51    1
    85    66    67    1
    86    51    52    1
    87    51    53    1
