@<TRIPOS>MOLECULE
1,2,3
 67 67 0 0 0
SMALL
GASTEIGER

@<TRIPOS>ATOM
      1 P          -1.9513    2.1943   11.4235 P.3     1  UNL1       -0.0889
      2 P           1.1146   -0.4338    9.6436 P.3     1  UNL1       -0.0889
      3 N          -1.1803   -0.4151   11.1516 N.ar    1  UNL1       -0.2558
      4 C          -3.1539    2.2940    9.9471 C.3     1  UNL1       -0.0165
      5 C          -0.9597   -1.7039   10.7826 C.ar    1  UNL1        0.0459
      6 C          -3.2026    0.8849    9.3495 C.3     1  UNL1       -0.0561
      7 H          -2.1913    0.5521    9.0945 H       1  UNL1        0.0238
      8 H          -3.8051    0.8850    8.4410 H       1  UNL1        0.0238
      9 H          -3.6306    0.1659   10.0440 H       1  UNL1        0.0238
     10 C          -4.5819    2.7448   10.2407 C.3     1  UNL1       -0.0561
     11 H          -5.0456    2.1173   10.9993 H       1  UNL1        0.0238
     12 H          -5.1771    2.6559    9.3313 H       1  UNL1        0.0238
     13 H          -4.6247    3.7826   10.5594 H       1  UNL1        0.0238
     14 C          -2.6914    0.9085   12.5415 C.3     1  UNL1        0.0111
     15 H          -2.3225    1.1021   13.5564 H       1  UNL1        0.0377
     16 H          -3.7840    0.9591   12.5624 H       1  UNL1        0.0377
     17 C          -1.8267   -2.5342   11.4560 C.ar    1  UNL1       -0.0384
     18 H          -1.8887   -3.6039   11.3748 H       1  UNL1        0.0636
     19 C          -2.2043   -0.4120   12.0452 C.ar    1  UNL1        0.0459
     20 C           0.0054   -1.9286    9.6668 C.3     1  UNL1        0.0111
     21 H          -0.5540   -1.9598    8.7243 H       1  UNL1        0.0377
     22 H           0.5559   -2.8664    9.7599 H       1  UNL1        0.0377
     23 C          -2.1996    3.7471   12.5089 C.3     1  UNL1       -0.0165
     24 C          -2.5089    3.2073    8.8997 C.3     1  UNL1       -0.0561
     25 H          -2.5713    4.2549    9.1737 H       1  UNL1        0.0238
     26 H          -3.0071    3.0822    7.9384 H       1  UNL1        0.0238
     27 H          -1.4529    2.9481    8.7808 H       1  UNL1        0.0238
     28 C           2.6629   -1.1241   10.4943 C.3     1  UNL1       -0.0165
     29 C           1.4157   -0.2283    7.7737 C.3     1  UNL1       -0.0165
     30 C          -3.4900    3.7284   13.3340 C.3     1  UNL1       -0.0561
     31 H          -4.3725    3.5860   12.7196 H       1  UNL1        0.0238
     32 H          -3.5914    4.6854   13.8463 H       1  UNL1        0.0238
     33 H          -3.4680    2.9520   14.0940 H       1  UNL1        0.0238
     34 C           3.6536    0.0135   10.7414 C.3     1  UNL1       -0.0561
     35 H           4.0419    0.4202    9.8129 H       1  UNL1        0.0238
     36 H           4.4966   -0.3529   11.3272 H       1  UNL1        0.0238
     37 H           3.1813    0.8195   11.2962 H       1  UNL1        0.0238
     38 C          -2.6268   -1.7038   12.2680 C.ar    1  UNL1       -0.0384
     39 H          -3.4141   -2.0179   12.9286 H       1  UNL1        0.0636
     40 C           1.5170   -1.5126    6.9493 C.3     1  UNL1       -0.0561
     41 H           2.3895   -2.0977    7.2211 H       1  UNL1        0.0238
     42 H           1.6098   -1.2456    5.8962 H       1  UNL1        0.0238
     43 H           0.6368   -2.1415    7.0505 H       1  UNL1        0.0238
     44 C           2.6500    0.6278    7.4997 C.3     1  UNL1       -0.0561
     45 H           2.6526    1.5164    8.1241 H       1  UNL1        0.0238
     46 H           2.6523    0.9448    6.4566 H       1  UNL1        0.0238
     47 H           3.5642    0.0661    7.6739 H       1  UNL1        0.0238
     48 C           3.3662   -2.2531    9.7436 C.3     1  UNL1       -0.0561
     49 H           2.6743   -3.0368    9.4431 H       1  UNL1        0.0238
     50 H           4.1132   -2.7033   10.3975 H       1  UNL1        0.0238
     51 H           3.8817   -1.8802    8.8620 H       1  UNL1        0.0238
     52 C           0.1691    0.5547    7.3415 C.3     1  UNL1       -0.0561
     53 H          -0.7266   -0.0605    7.4254 H       1  UNL1        0.0238
     54 H           0.2539    0.8815    6.3060 H       1  UNL1        0.0238
     55 H           0.0527    1.4441    7.9752 H       1  UNL1        0.0238
     56 C          -1.0120    3.7636   13.4757 C.3     1  UNL1       -0.0561
     57 H          -0.9155    2.8205   14.0125 H       1  UNL1        0.0238
     58 H          -1.1442    4.5537   14.2144 H       1  UNL1        0.0238
     59 H          -0.0834    3.9497   12.9424 H       1  UNL1        0.0238
     60 C           2.1684   -1.6405   11.8502 C.3     1  UNL1       -0.0561
     61 H           1.5294   -0.9000   12.3301 H       1  UNL1        0.0238
     62 H           3.0148   -1.8346   12.5080 H       1  UNL1        0.0238
     63 H           1.5995   -2.5614   11.7496 H       1  UNL1        0.0238
     64 C          -2.1450    5.0317   11.6837 C.3     1  UNL1       -0.0561
     65 H          -1.2936    5.0192   11.0076 H       1  UNL1        0.0238
     66 H          -2.0314    5.8855   12.3519 H       1  UNL1        0.0238
     67 H          -3.0566    5.1825   11.1116 H       1  UNL1        0.0238
@<TRIPOS>BOND
     1    42    40    1
     2    54    52    1
     3    46    44    1
     4    40    43    1
     5    40    41    1
     6    40    29    1
     7    52    53    1
     8    52    29    1
     9    52    55    1
    10    44    47    1
    11    44    29    1
    12    44    45    1
    13    29     2    1
    14    26    24    1
    15     8     6    1
    16    21    20    1
    17    27    24    1
    18    51    48    1
    19    24    25    1
    20    24     4    1
    21     7     6    1
    22    12    10    1
    23     6     4    1
    24     6     9    1
    25    49    48    1
    26     2    20    1
    27     2    28    1
    28    20    22    1
    29    20     5    1
    30    48    50    1
    31    48    28    1
    32    35    34    1
    33     4    10    1
    34     4     1    1
    35    10    13    1
    36    10    11    1
    37    28    34    1
    38    28    60    1
    39    34    37    1
    40    34    36    1
    41     5     3   ar
    42     5    17   ar
    43    65    64    1
    44    67    64    1
    45     3    19   ar
    46    18    17    1
    47     1    23    1
    48     1    14    1
    49    17    38   ar
    50    64    66    1
    51    64    23    1
    52    63    60    1
    53    60    61    1
    54    60    62    1
    55    19    38   ar
    56    19    14    1
    57    38    39    1
    58    23    30    1
    59    23    56    1
    60    14    16    1
    61    14    15    1
    62    31    30    1
    63    59    56    1
    64    30    32    1
    65    30    33    1
    66    56    57    1
    67    56    58    1
