@<TRIPOS>MOLECULE
1,2,5
 79 78 0 0 0
SMALL
GASTEIGER

@<TRIPOS>ATOM
      1 P           4.7162    6.5677    3.3955 P.3     1  UNL1        0.0000
      2 P           1.2140    4.2501    5.8586 P.3     1  UNL1        0.0000
      3 SI          5.0182    3.5050    3.1527 Si      1  UNL1        0.0000
      4 SI          3.7819    2.5442    5.6938 Si      1  UNL1        0.0000
      5 N           3.9654    3.7456    4.4844 N.3     1  UNL1        0.0000
      6 C           4.2679    2.4217    1.7638 C.3     1  UNL1        0.0000
      7 H           3.3256    2.8106    1.3883 H       1  UNL1        0.0000
      8 H           4.0879    1.4148    2.1251 H       1  UNL1        0.0000
      9 H           4.9522    2.3477    0.9235 H       1  UNL1        0.0000
     10 C           6.7125    2.7302    3.5619 C.3     1  UNL1        0.0000
     11 H           6.5632    1.7174    3.9201 H       1  UNL1        0.0000
     12 H           7.2687    3.2662    4.3244 H       1  UNL1        0.0000
     13 H           7.3351    2.6726    2.6746 H       1  UNL1        0.0000
     14 C           5.3142    5.2217    2.3317 C.3     1  UNL1        0.0000
     15 H           6.3490    5.3787    2.0368 H       1  UNL1        0.0000
     16 H           4.7028    5.2441    1.4325 H       1  UNL1        0.0000
     17 C           6.1738    6.9731    4.5415 C.3     1  UNL1        0.0000
     18 C           6.0483    6.0129    5.7281 C.3     1  UNL1        0.0000
     19 H           6.8814    6.1576    6.4166 H       1  UNL1        0.0000
     20 H           6.0538    4.9761    5.3995 H       1  UNL1        0.0000
     21 H           5.1196    6.2047    6.2730 H       1  UNL1        0.0000
     22 C           6.0491    8.3967    5.0856 C.3     1  UNL1        0.0000
     23 H           6.7355    8.5266    5.9224 H       1  UNL1        0.0000
     24 H           5.0352    8.5722    5.4402 H       1  UNL1        0.0000
     25 H           6.3049    9.1385    4.3343 H       1  UNL1        0.0000
     26 C           7.5438    6.7777    3.8926 C.3     1  UNL1        0.0000
     27 H           8.3148    7.1334    4.5764 H       1  UNL1        0.0000
     28 H           7.6394    7.3353    2.9646 H       1  UNL1        0.0000
     29 H           7.7398    5.7264    3.6938 H       1  UNL1        0.0000
     30 C           4.3841    7.9905    2.1807 C.3     1  UNL1        0.0000
     31 C           5.6381    8.5142    1.4859 C.3     1  UNL1        0.0000
     32 H           5.3486    9.2190    0.7069 H       1  UNL1        0.0000
     33 H           6.1920    7.7042    1.0138 H       1  UNL1        0.0000
     34 H           6.2954    9.0360    2.1759 H       1  UNL1        0.0000
     35 C           3.6525    9.1152    2.9144 C.3     1  UNL1        0.0000
     36 H           3.2226    9.8060    2.1909 H       1  UNL1        0.0000
     37 H           4.3145    9.6807    3.5600 H       1  UNL1        0.0000
     38 H           2.8474    8.6958    3.5182 H       1  UNL1        0.0000
     39 C           3.4281    7.4241    1.1231 C.3     1  UNL1        0.0000
     40 H           2.9160    8.2383    0.6142 H       1  UNL1        0.0000
     41 H           2.6691    6.8011    1.5986 H       1  UNL1        0.0000
     42 H           3.9557    6.8463    0.3674 H       1  UNL1        0.0000
     43 C           3.6275    0.7493    5.0664 C.3     1  UNL1        0.0000
     44 H           4.5599    0.4563    4.5962 H       1  UNL1        0.0000
     45 H           2.8363    0.6037    4.3378 H       1  UNL1        0.0000
     46 H           3.4505    0.0657    5.8910 H       1  UNL1        0.0000
     47 C           5.1954    2.5250    6.9848 C.3     1  UNL1        0.0000
     48 H           6.1360    2.2631    6.5119 H       1  UNL1        0.0000
     49 H           5.0014    1.7832    7.7541 H       1  UNL1        0.0000
     50 H           5.3302    3.4836    7.4780 H       1  UNL1        0.0000
     51 C           2.2014    2.9805    6.7039 C.3     1  UNL1        0.0000
     52 H           1.6001    2.1085    6.9497 H       1  UNL1        0.0000
     53 H           2.5430    3.4250    7.6360 H       1  UNL1        0.0000
     54 C           0.0827    3.2872    4.6781 C.3     1  UNL1        0.0000
     55 C           0.8908    3.0977    3.3910 C.3     1  UNL1        0.0000
     56 H           0.3192    2.5087    2.6732 H       1  UNL1        0.0000
     57 H           1.8283    2.5819    3.5854 H       1  UNL1        0.0000
     58 H           1.1108    4.0679    2.9367 H       1  UNL1        0.0000
     59 C          -0.3353    1.9146    5.2047 C.3     1  UNL1        0.0000
     60 H          -1.0649    1.4791    4.5216 H       1  UNL1        0.0000
     61 H          -0.7956    1.9772    6.1873 H       1  UNL1        0.0000
     62 H           0.5136    1.2365    5.2557 H       1  UNL1        0.0000
     63 C          -1.1549    4.1143    4.3284 C.3     1  UNL1        0.0000
     64 H          -1.6574    3.6696    3.4692 H       1  UNL1        0.0000
     65 H          -0.8624    5.1303    4.0701 H       1  UNL1        0.0000
     66 H          -1.8675    4.1381    5.1480 H       1  UNL1        0.0000
     67 C           0.2154    5.0538    7.2614 C.3     1  UNL1        0.0000
     68 C          -0.7740    4.1078    7.9365 C.3     1  UNL1        0.0000
     69 H          -1.1961    4.5971    8.8139 H       1  UNL1        0.0000
     70 H          -0.2810    3.1954    8.2681 H       1  UNL1        0.0000
     71 H          -1.5967    3.8447    7.2773 H       1  UNL1        0.0000
     72 C          -0.4944    6.2969    6.7230 C.3     1  UNL1        0.0000
     73 H          -0.8312    6.9158    7.5529 H       1  UNL1        0.0000
     74 H          -1.3619    6.0446    6.1242 H       1  UNL1        0.0000
     75 H           0.1968    6.8787    6.1127 H       1  UNL1        0.0000
     76 C           1.2476    5.5167    8.2976 C.3     1  UNL1        0.0000
     77 H           0.8110    6.2798    8.9389 H       1  UNL1        0.0000
     78 H           2.1100    5.9589    7.7965 H       1  UNL1        0.0000
     79 H           1.5746    4.6997    8.9372 H       1  UNL1        0.0000
@<TRIPOS>BOND
     1    42    39    1
     2    40    39    1
     3    32    31    1
     4     9     6    1
     5    33    31    1
     6    39    41    1
     7    39    30    1
     8     7     6    1
     9    16    14    1
    10    31    34    1
    11    31    30    1
    12     6     8    1
    13     6     3    1
    14    15    14    1
    15    30    35    1
    16    30     1    1
    17    36    35    1
    18    14     3    1
    19    14     1    1
    20    56    55    1
    21    13    10    1
    22    35    38    1
    23    35    37    1
    24    58    55    1
    25    28    26    1
    26     3    10    1
    27     3     5    1
    28    55    57    1
    29    55    54    1
    30     1    17    1
    31    64    63    1
    32    10    11    1
    33    10    12    1
    34    29    26    1
    35    26    17    1
    36    26    27    1
    37    65    63    1
    38    63    54    1
    39    63    66    1
    40    25    22    1
    41    45    43    1
    42     5     4    1
    43    60    59    1
    44    17    22    1
    45    17    18    1
    46    44    43    1
    47    54    59    1
    48    54     2    1
    49    43     4    1
    50    43    46    1
    51    22    24    1
    52    22    23    1
    53    59    62    1
    54    59    61    1
    55    20    18    1
    56     4    51    1
    57     4    47    1
    58    18    21    1
    59    18    19    1
    60     2    51    1
    61     2    67    1
    62    75    72    1
    63    74    72    1
    64    48    47    1
    65    51    52    1
    66    51    53    1
    67    72    67    1
    68    72    73    1
    69    47    50    1
    70    47    49    1
    71    67    68    1
    72    67    76    1
    73    71    68    1
    74    78    76    1
    75    68    70    1
    76    68    69    1
    77    76    79    1
    78    76    77    1
