@<TRIPOS>MOLECULE
1,3,41
 79 78 0 0 0
SMALL
GASTEIGER

@<TRIPOS>ATOM
      1 P           2.2644   19.2807    1.2268 P.3     1  UNL1        0.0000
      2 SI          1.4855   18.2181   -1.5734 Si      1  UNL1        0.0000
      3 N          -0.0001   18.3881   -0.7381 N.3     1  UNL1        0.0000
      4 C           1.7320   19.3750   -3.0706 C.3     1  UNL1        0.0000
      5 H           1.0112   19.1179   -3.8392 H       1  UNL1        0.0000
      6 H           2.7218   19.2514   -3.4987 H       1  UNL1        0.0000
      7 H           1.5982   20.4267   -2.8386 H       1  UNL1        0.0000
      8 C           1.8062   16.4461   -2.2239 C.3     1  UNL1        0.0000
      9 H           1.7692   15.6968   -1.4382 H       1  UNL1        0.0000
     10 H           2.7817   16.3800   -2.6969 H       1  UNL1        0.0000
     11 H           1.0654   16.1777   -2.9695 H       1  UNL1        0.0000
     12 C           2.9011   18.5385   -0.3064 C.3     1  UNL1        0.0000
     13 H           3.2935   17.5614   -0.0337 H       1  UNL1        0.0000
     14 H           3.7189   19.1219   -0.7225 H       1  UNL1        0.0000
     15 C           2.2462   21.1503    0.8968 C.3     1  UNL1        0.0000
     16 C           0.8952   21.4412    0.2365 C.3     1  UNL1        0.0000
     17 H           0.8341   22.4935   -0.0420 H       1  UNL1        0.0000
     18 H           0.0818   21.2275    0.9348 H       1  UNL1        0.0000
     19 H           0.7570   20.8427   -0.6611 H       1  UNL1        0.0000
     20 C           2.2912   21.9332    2.2094 C.3     1  UNL1        0.0000
     21 H           2.0347   22.9749    2.0159 H       1  UNL1        0.0000
     22 H           3.2820   21.9169    2.6548 H       1  UNL1        0.0000
     23 H           1.5654   21.5254    2.9105 H       1  UNL1        0.0000
     24 C           3.3635   21.6208   -0.0344 C.3     1  UNL1        0.0000
     25 H           3.3499   22.7097   -0.0849 H       1  UNL1        0.0000
     26 H           3.2201   21.2425   -1.0439 H       1  UNL1        0.0000
     27 H           4.3452   21.3167    0.3192 H       1  UNL1        0.0000
     28 C           3.5738   18.8287    2.5278 C.3     1  UNL1        0.0000
     29 C           3.0416   19.1889    3.9154 C.3     1  UNL1        0.0000
     30 H           3.6579   18.7159    4.6778 H       1  UNL1        0.0000
     31 H           2.0188   18.8281    4.0218 H       1  UNL1        0.0000
     32 H           3.0537   20.2575    4.0932 H       1  UNL1        0.0000
     33 C           4.9380   19.4669    2.2793 C.3     1  UNL1        0.0000
     34 H           5.6608   19.0552    2.9834 H       1  UNL1        0.0000
     35 H           4.9141   20.5435    2.4229 H       1  UNL1        0.0000
     36 H           5.2941   19.2527    1.2729 H       1  UNL1        0.0000
     37 C           3.7212   17.3033    2.4717 C.3     1  UNL1        0.0000
     38 H           4.1969   16.9489    3.3838 H       1  UNL1        0.0000
     39 H           4.3404   16.9853    1.6358 H       1  UNL1        0.0000
     40 H           2.7393   16.8335    2.4055 H       1  UNL1        0.0000
     41 P          -2.2644   17.4961    1.2267 P.3     1  UNL1        0.0000
     42 C          -2.9015   18.2380   -0.3065 C.3     1  UNL1        0.0000
     43 SI         -1.4858   18.5581   -1.5735 Si      1  UNL1        0.0000
     44 C          -1.7323   17.4011   -3.0705 C.3     1  UNL1        0.0000
     45 H          -1.0116   17.6582   -3.8392 H       1  UNL1        0.0000
     46 H          -2.7222   17.5246   -3.4985 H       1  UNL1        0.0000
     47 H          -1.5984   16.3494   -2.8385 H       1  UNL1        0.0000
     48 C          -1.8064   20.3301   -2.2240 C.3     1  UNL1        0.0000
     49 H          -1.7695   21.0795   -1.4384 H       1  UNL1        0.0000
     50 H          -2.7819   20.3961   -2.6972 H       1  UNL1        0.0000
     51 H          -1.0655   20.5985   -2.9696 H       1  UNL1        0.0000
     52 H          -3.2938   19.2152   -0.0339 H       1  UNL1        0.0000
     53 H          -3.7193   17.6545   -0.7224 H       1  UNL1        0.0000
     54 C          -2.2464   15.6264    0.8971 C.3     1  UNL1        0.0000
     55 C          -0.8954   15.3353    0.2369 C.3     1  UNL1        0.0000
     56 H          -0.8344   14.2830   -0.0416 H       1  UNL1        0.0000
     57 H          -0.0820   15.5490    0.9351 H       1  UNL1        0.0000
     58 H          -0.7572   15.9337   -0.6608 H       1  UNL1        0.0000
     59 C          -2.2913   14.8434    2.2097 C.3     1  UNL1        0.0000
     60 H          -2.0349   13.8017    2.0162 H       1  UNL1        0.0000
     61 H          -3.2821   14.8597    2.6550 H       1  UNL1        0.0000
     62 H          -1.5656   15.2512    2.9107 H       1  UNL1        0.0000
     63 C          -3.3637   15.1557   -0.0340 C.3     1  UNL1        0.0000
     64 H          -3.3501   14.0667   -0.0844 H       1  UNL1        0.0000
     65 H          -3.2203   15.5338   -1.0436 H       1  UNL1        0.0000
     66 H          -4.3453   15.4599    0.3196 H       1  UNL1        0.0000
     67 C          -3.5738   17.9478    2.5278 C.3     1  UNL1        0.0000
     68 C          -3.0417   17.5878    3.9155 C.3     1  UNL1        0.0000
     69 H          -3.6579   18.0609    4.6779 H       1  UNL1        0.0000
     70 H          -2.0188   17.9485    4.0219 H       1  UNL1        0.0000
     71 H          -3.0540   16.5192    4.0934 H       1  UNL1        0.0000
     72 C          -4.9382   17.3098    2.2796 C.3     1  UNL1        0.0000
     73 H          -5.6609   17.7216    2.9836 H       1  UNL1        0.0000
     74 H          -4.9143   16.2332    2.4232 H       1  UNL1        0.0000
     75 H          -5.2943   17.5239    1.2732 H       1  UNL1        0.0000
     76 C          -3.7212   19.4732    2.4716 C.3     1  UNL1        0.0000
     77 H          -4.1968   19.8277    3.3838 H       1  UNL1        0.0000
     78 H          -4.3404   19.7912    1.6358 H       1  UNL1        0.0000
     79 H          -2.7394   19.9430    2.4054 H       1  UNL1        0.0000
@<TRIPOS>BOND
     1    45    44    1
     2     5     4    1
     3     6     4    1
     4    46    44    1
     5     4     7    1
     6     4     2    1
     7    44    47    1
     8    44    43    1
     9    51    48    1
    10    11     8    1
    11    50    48    1
    12    10     8    1
    13    48    43    1
    14    48    49    1
    15     8     2    1
    16     8     9    1
    17    43     3    1
    18    43    42    1
    19     2     3    1
    20     2    12    1
    21    26    24    1
    22    65    63    1
    23    14    12    1
    24    53    42    1
    25    19    16    1
    26    58    55    1
    27    42    52    1
    28    42    41    1
    29    12    13    1
    30    12     1    1
    31    25    24    1
    32    64    63    1
    33    17    16    1
    34    56    55    1
    35    24    27    1
    36    24    15    1
    37    63    66    1
    38    63    54    1
    39    16    15    1
    40    16    18    1
    41    55    54    1
    42    55    57    1
    43    15     1    1
    44    15    20    1
    45    54    41    1
    46    54    59    1
    47    41    67    1
    48     1    28    1
    49    36    33    1
    50    75    72    1
    51    78    76    1
    52    39    37    1
    53    21    20    1
    54    60    59    1
    55    20    22    1
    56    20    23    1
    57    59    61    1
    58    59    62    1
    59    33    35    1
    60    33    28    1
    61    33    34    1
    62    72    74    1
    63    72    67    1
    64    72    73    1
    65    79    76    1
    66    40    37    1
    67    76    67    1
    68    76    77    1
    69    37    28    1
    70    37    38    1
    71    28    29    1
    72    67    68    1
    73    29    31    1
    74    29    32    1
    75    29    30    1
    76    68    70    1
    77    68    71    1
    78    68    69    1
