@<TRIPOS>MOLECULE
1,2,5
 79 78 0 0 0
SMALL
GASTEIGER

@<TRIPOS>ATOM
      1 P          -1.0002    3.8928    2.8935 P.3     1  UNL1        0.0000
      2 P           2.4658    0.8632    4.1948 P.3     1  UNL1        0.0000
      3 SI          1.7429    5.3350    3.0115 Si      1  UNL1        0.0000
      4 SI          3.0621    3.7277    5.2199 Si      1  UNL1        0.0000
      5 N           1.9369    3.9303    3.9562 N.3     1  UNL1        0.0000
      6 C           2.0298    6.9836    3.9263 C.3     1  UNL1        0.0000
      7 H           3.0957    7.1665    3.9814 H       1  UNL1        0.0000
      8 H           1.6499    6.9738    4.9409 H       1  UNL1        0.0000
      9 H           1.5815    7.8216    3.4031 H       1  UNL1        0.0000
     10 C           2.8667    5.4092    1.4540 C.3     1  UNL1        0.0000
     11 H           3.9133    5.4275    1.7407 H       1  UNL1        0.0000
     12 H           2.6740    6.3040    0.8681 H       1  UNL1        0.0000
     13 H           2.7201    4.5507    0.8045 H       1  UNL1        0.0000
     14 C          -0.0504    5.3170    2.2867 C.3     1  UNL1        0.0000
     15 H          -0.6039    6.2384    2.4655 H       1  UNL1        0.0000
     16 H           0.0462    5.1834    1.2099 H       1  UNL1        0.0000
     17 C          -2.1846    3.5377    1.4330 C.3     1  UNL1        0.0000
     18 C          -2.7514    4.7887    0.7595 C.3     1  UNL1        0.0000
     19 H          -3.3681    4.4798   -0.0850 H       1  UNL1        0.0000
     20 H          -1.9615    5.4280    0.3741 H       1  UNL1        0.0000
     21 H          -3.3752    5.3734    1.4253 H       1  UNL1        0.0000
     22 C          -1.3703    2.7715    0.3885 C.3     1  UNL1        0.0000
     23 H          -1.9810    2.5827   -0.4945 H       1  UNL1        0.0000
     24 H          -1.0362    1.8191    0.7949 H       1  UNL1        0.0000
     25 H          -0.4907    3.3335    0.0809 H       1  UNL1        0.0000
     26 C          -3.3236    2.6341    1.9027 C.3     1  UNL1        0.0000
     27 H          -3.8079    2.1671    1.0451 H       1  UNL1        0.0000
     28 H          -4.0801    3.1944    2.4463 H       1  UNL1        0.0000
     29 H          -2.9301    1.8457    2.5434 H       1  UNL1        0.0000
     30 C          -2.0073    4.6096    4.3430 C.3     1  UNL1        0.0000
     31 C          -3.0477    5.6637    3.9684 C.3     1  UNL1        0.0000
     32 H          -3.4007    6.1452    4.8809 H       1  UNL1        0.0000
     33 H          -3.9116    5.2226    3.4776 H       1  UNL1        0.0000
     34 H          -2.6289    6.4380    3.3292 H       1  UNL1        0.0000
     35 C          -2.6898    3.4747    5.1079 C.3     1  UNL1        0.0000
     36 H          -3.0636    3.8461    6.0619 H       1  UNL1        0.0000
     37 H          -1.9745    2.6780    5.3033 H       1  UNL1        0.0000
     38 H          -3.5293    3.0598    4.5579 H       1  UNL1        0.0000
     39 C          -0.9676    5.2593    5.2588 C.3     1  UNL1        0.0000
     40 H          -1.4074    5.4743    6.2327 H       1  UNL1        0.0000
     41 H          -0.6037    6.1930    4.8382 H       1  UNL1        0.0000
     42 H          -0.1188    4.5940    5.4044 H       1  UNL1        0.0000
     43 C           4.7372    4.6057    4.9727 C.3     1  UNL1        0.0000
     44 H           4.6345    5.6387    5.2811 H       1  UNL1        0.0000
     45 H           5.0612    4.6068    3.9389 H       1  UNL1        0.0000
     46 H           5.5230    4.1624    5.5752 H       1  UNL1        0.0000
     47 C           2.4328    4.2946    6.9451 C.3     1  UNL1        0.0000
     48 H           2.2251    5.3599    6.9419 H       1  UNL1        0.0000
     49 H           3.1737    4.1095    7.7182 H       1  UNL1        0.0000
     50 H           1.5185    3.7835    7.2336 H       1  UNL1        0.0000
     51 C           3.3694    1.8304    5.4383 C.3     1  UNL1        0.0000
     52 H           4.4236    1.5546    5.4322 H       1  UNL1        0.0000
     53 H           2.9519    1.5517    6.4051 H       1  UNL1        0.0000
     54 C           2.1104   -0.7719    5.1231 C.3     1  UNL1        0.0000
     55 C           3.2661   -1.2712    5.9918 C.3     1  UNL1        0.0000
     56 H           2.9414   -2.1676    6.5209 H       1  UNL1        0.0000
     57 H           3.5529   -0.5343    6.7373 H       1  UNL1        0.0000
     58 H           4.1418   -1.5326    5.4094 H       1  UNL1        0.0000
     59 C           1.7020   -1.8508    4.1212 C.3     1  UNL1        0.0000
     60 H           1.1910   -2.6648    4.6354 H       1  UNL1        0.0000
     61 H           2.5659   -2.2706    3.6121 H       1  UNL1        0.0000
     62 H           1.0188   -1.4304    3.3839 H       1  UNL1        0.0000
     63 C           0.9174   -0.5005    6.0419 C.3     1  UNL1        0.0000
     64 H           0.6951   -1.3876    6.6351 H       1  UNL1        0.0000
     65 H           0.0392   -0.2422    5.4540 H       1  UNL1        0.0000
     66 H           1.1207    0.3231    6.7235 H       1  UNL1        0.0000
     67 C           3.7714    0.5347    2.8468 C.3     1  UNL1        0.0000
     68 C           3.1012   -0.0789    1.6166 C.3     1  UNL1        0.0000
     69 H           3.7844   -0.0425    0.7682 H       1  UNL1        0.0000
     70 H           2.2051    0.4847    1.3634 H       1  UNL1        0.0000
     71 H           2.8240   -1.1163    1.7787 H       1  UNL1        0.0000
     72 C           4.9512   -0.3396    3.2680 C.3     1  UNL1        0.0000
     73 H           5.7229   -0.2780    2.5001 H       1  UNL1        0.0000
     74 H           4.6668   -1.3847    3.3608 H       1  UNL1        0.0000
     75 H           5.3917   -0.0036    4.2043 H       1  UNL1        0.0000
     76 C           4.3044    1.9196    2.4722 C.3     1  UNL1        0.0000
     77 H           4.8693    1.8652    1.5416 H       1  UNL1        0.0000
     78 H           4.9619    2.3089    3.2450 H       1  UNL1        0.0000
     79 H           3.4830    2.6199    2.3351 H       1  UNL1        0.0000
@<TRIPOS>BOND
     1    23    22    1
     2    19    18    1
     3    25    22    1
     4    20    18    1
     5    22    24    1
     6    22    17    1
     7    18    21    1
     8    18    17    1
     9    69    68    1
    10    13    10    1
    11    12    10    1
    12    27    26    1
    13    16    14    1
    14    70    68    1
    15    17    26    1
    16    17     1    1
    17    10    11    1
    18    10     3    1
    19    77    76    1
    20    68    71    1
    21    68    67    1
    22    26    28    1
    23    26    29    1
    24    14    15    1
    25    14     1    1
    26    14     3    1
    27    79    76    1
    28    76    67    1
    29    76    78    1
    30    73    72    1
    31    67    72    1
    32    67     2    1
    33     1    30    1
    34     3     6    1
    35     3     5    1
    36    72    74    1
    37    72    75    1
    38    34    31    1
    39    62    59    1
    40     9     6    1
    41    33    31    1
    42    61    59    1
    43     6     7    1
    44     6     8    1
    45    45    43    1
    46     5     4    1
    47    31    30    1
    48    31    32    1
    49    59    60    1
    50    59    54    1
    51     2    54    1
    52     2    51    1
    53    30    35    1
    54    30    39    1
    55    38    35    1
    56    41    39    1
    57    43     4    1
    58    43    44    1
    59    43    46    1
    60    35    37    1
    61    35    36    1
    62    54    55    1
    63    54    63    1
    64     4    51    1
    65     4    47    1
    66    39    42    1
    67    39    40    1
    68    58    55    1
    69    52    51    1
    70    51    53    1
    71    65    63    1
    72    55    56    1
    73    55    57    1
    74    63    64    1
    75    63    66    1
    76    48    47    1
    77    47    50    1
    78    47    49    1
