@<TRIPOS>MOLECULE
1,2,5
 79 78 0 0 0
SMALL
GASTEIGER

@<TRIPOS>ATOM
      1 P           8.5807    0.2942   26.9463 P.3     1  UNL1        0.0000
      2 P           5.9493    3.8079   28.6085 P.3     1  UNL1        0.0000
      3 SI          7.4010    1.8487   24.6174 Si      1  UNL1        0.0000
      4 SI          4.9491    3.0309   25.8468 Si      1  UNL1        0.0000
      5 N           6.5080    2.3215   26.0099 N.3     1  UNL1        0.0000
      6 C           8.4429    3.2900   23.8957 C.3     1  UNL1        0.0000
      7 H           9.1368    3.7017   24.6235 H       1  UNL1        0.0000
      8 H           7.7985    4.0965   23.5644 H       1  UNL1        0.0000
      9 H           9.0201    2.9602   23.0371 H       1  UNL1        0.0000
     10 C           6.3866    1.1177   23.1740 C.3     1  UNL1        0.0000
     11 H           5.6667    0.3750   23.4997 H       1  UNL1        0.0000
     12 H           7.0324    0.6559   22.4341 H       1  UNL1        0.0000
     13 H           5.8369    1.9073   22.6770 H       1  UNL1        0.0000
     14 C           8.6839    0.5111   25.1396 C.3     1  UNL1        0.0000
     15 H           8.5557   -0.4382   24.6227 H       1  UNL1        0.0000
     16 H           9.6743    0.8898   24.8979 H       1  UNL1        0.0000
     17 C          10.3998    0.0870   27.4452 C.3     1  UNL1        0.0000
     18 C          10.9044    1.5348   27.4645 C.3     1  UNL1        0.0000
     19 H          11.9472    1.5762   27.7762 H       1  UNL1        0.0000
     20 H          10.3072    2.1251   28.1659 H       1  UNL1        0.0000
     21 H          10.8236    1.9935   26.4794 H       1  UNL1        0.0000
     22 C          10.5223   -0.4920   28.8539 C.3     1  UNL1        0.0000
     23 H          11.5424   -0.3636   29.2158 H       1  UNL1        0.0000
     24 H          10.2993   -1.5564   28.8641 H       1  UNL1        0.0000
     25 H           9.8565    0.0176   29.5468 H       1  UNL1        0.0000
     26 C          11.2492   -0.7459   26.4863 C.3     1  UNL1        0.0000
     27 H          12.2780   -0.7614   26.8462 H       1  UNL1        0.0000
     28 H          11.2580   -0.3313   25.4818 H       1  UNL1        0.0000
     29 H          10.8992   -1.7723   26.4311 H       1  UNL1        0.0000
     30 C           7.6126   -1.3139   27.1631 C.3     1  UNL1        0.0000
     31 C           8.2896   -2.5808   26.6522 C.3     1  UNL1        0.0000
     32 H           7.5739   -3.4031   26.6563 H       1  UNL1        0.0000
     33 H           9.1255   -2.8654   27.2869 H       1  UNL1        0.0000
     34 H           8.6495   -2.4560   25.6324 H       1  UNL1        0.0000
     35 C           6.3083   -1.0615   26.4018 C.3     1  UNL1        0.0000
     36 H           5.5648   -1.8141   26.6625 H       1  UNL1        0.0000
     37 H           6.4596   -1.0923   25.3260 H       1  UNL1        0.0000
     38 H           5.9152   -0.0746   26.6697 H       1  UNL1        0.0000
     39 C           7.2577   -1.4497   28.6455 C.3     1  UNL1        0.0000
     40 H           6.5205   -2.2397   28.7854 H       1  UNL1        0.0000
     41 H           6.8288   -0.5067   29.0021 H       1  UNL1        0.0000
     42 H           8.1249   -1.6868   29.2544 H       1  UNL1        0.0000
     43 C           4.7121    4.2113   24.3643 C.3     1  UNL1        0.0000
     44 H           4.6499    3.6382   23.4476 H       1  UNL1        0.0000
     45 H           5.5291    4.9157   24.2531 H       1  UNL1        0.0000
     46 H           3.7913    4.7783   24.4561 H       1  UNL1        0.0000
     47 C           3.5559    1.7150   25.7419 C.3     1  UNL1        0.0000
     48 H           3.5456    1.0556   26.6054 H       1  UNL1        0.0000
     49 H           3.6817    1.0977   24.8595 H       1  UNL1        0.0000
     50 H           2.5803    2.1868   25.6734 H       1  UNL1        0.0000
     51 C           4.5693    4.0416   27.4413 C.3     1  UNL1        0.0000
     52 H           4.3898    5.0984   27.2527 H       1  UNL1        0.0000
     53 H           3.6696    3.6266   27.8898 H       1  UNL1        0.0000
     54 C           6.9460    5.4070   28.4701 C.3     1  UNL1        0.0000
     55 C           8.2636    5.2020   29.2211 C.3     1  UNL1        0.0000
     56 H           8.9580    6.0095   28.9910 H       1  UNL1        0.0000
     57 H           8.7150    4.2545   28.9061 H       1  UNL1        0.0000
     58 H           8.1219    5.1759   30.2973 H       1  UNL1        0.0000
     59 C           6.2478    6.6776   28.9420 C.3     1  UNL1        0.0000
     60 H           6.8337    7.5473   28.6441 H       1  UNL1        0.0000
     61 H           6.1525    6.6968   30.0251 H       1  UNL1        0.0000
     62 H           5.2575    6.7744   28.5006 H       1  UNL1        0.0000
     63 C           7.2797    5.5039   26.9790 C.3     1  UNL1        0.0000
     64 H           8.0627    6.2430   26.8125 H       1  UNL1        0.0000
     65 H           6.4114    5.7915   26.3917 H       1  UNL1        0.0000
     66 H           7.6354    4.5316   26.6210 H       1  UNL1        0.0000
     67 C           5.0622    3.6810   30.2813 C.3     1  UNL1        0.0000
     68 C           4.5710    2.2284   30.2854 C.3     1  UNL1        0.0000
     69 H           4.0642    1.9948   31.2207 H       1  UNL1        0.0000
     70 H           5.4219    1.5502   30.1712 H       1  UNL1        0.0000
     71 H           3.8773    2.0445   29.4656 H       1  UNL1        0.0000
     72 C           6.0408    3.8690   31.4397 C.3     1  UNL1        0.0000
     73 H           5.5754    3.5426   32.3697 H       1  UNL1        0.0000
     74 H           6.3175    4.9141   31.5573 H       1  UNL1        0.0000
     75 H           6.9414    3.2771   31.2924 H       1  UNL1        0.0000
     76 C           3.8787    4.6294   30.4672 C.3     1  UNL1        0.0000
     77 H           3.4166    4.4340   31.4349 H       1  UNL1        0.0000
     78 H           3.1177    4.4887   29.7043 H       1  UNL1        0.0000
     79 H           4.1932    5.6685   30.4511 H       1  UNL1        0.0000
@<TRIPOS>BOND
     1    12    10    1
     2    13    10    1
     3     9     6    1
     4    10    11    1
     5    10     3    1
     6    44    43    1
     7     8     6    1
     8     6     3    1
     9     6     7    1
    10    45    43    1
    11    43    46    1
    12    43     4    1
    13     3    14    1
    14     3     5    1
    15    15    14    1
    16    49    47    1
    17    16    14    1
    18    14     1    1
    19    37    35    1
    20    28    26    1
    21    34    31    1
    22    50    47    1
    23    47     4    1
    24    47    48    1
    25     4     5    1
    26     4    51    1
    27    65    63    1
    28    35    36    1
    29    35    38    1
    30    35    30    1
    31    29    26    1
    32    21    18    1
    33    26    27    1
    34    26    17    1
    35    66    63    1
    36    31    32    1
    37    31    30    1
    38    31    33    1
    39    64    63    1
    40     1    30    1
    41     1    17    1
    42    63    54    1
    43    30    39    1
    44    52    51    1
    45    51    53    1
    46    51     2    1
    47    17    18    1
    48    17    22    1
    49    18    19    1
    50    18    20    1
    51    54     2    1
    52    54    59    1
    53    54    55    1
    54    62    59    1
    55     2    67    1
    56    60    59    1
    57    39    40    1
    58    39    41    1
    59    39    42    1
    60    22    24    1
    61    22    23    1
    62    22    25    1
    63    57    55    1
    64    59    61    1
    65    56    55    1
    66    55    58    1
    67    71    68    1
    68    78    76    1
    69    70    68    1
    70    67    68    1
    71    67    76    1
    72    67    72    1
    73    68    69    1
    74    79    76    1
    75    76    77    1
    76    75    72    1
    77    72    74    1
    78    72    73    1
