@<TRIPOS>MOLECULE
1,2,7
 75 77 0 0 0
SMALL
GASTEIGER

@<TRIPOS>ATOM
      1 P           7.2670    4.0557   15.2901 P.3     1  UNL1        0.0000
      2 P           4.2943    0.6871   14.4975 P.3     1  UNL1        0.0000
      3 SI          5.4591    5.0756   13.1284 Si      1  UNL1        0.0000
      4 SI          3.2402    3.0672   12.9463 Si      1  UNL1        0.0000
      5 SI          6.4794    0.0575   12.4874 Si      1  UNL1        0.0000
      6 SI          8.7441    2.0854   13.3405 Si      1  UNL1        0.0000
      7 N           4.7771    3.5558   13.5233 N.3     1  UNL1        0.0000
      8 N           7.1089    1.5019   13.2309 N.3     1  UNL1        0.0000
      9 C           6.5350    5.5816   14.6263 C.3     1  UNL1        0.0000
     10 H           7.3113    6.3184   14.4153 H       1  UNL1        0.0000
     11 H           5.8903    5.9746   15.4151 H       1  UNL1        0.0000
     12 C           3.0939    1.1748   13.2085 C.3     1  UNL1        0.0000
     13 H           2.0917    0.9110   13.5439 H       1  UNL1        0.0000
     14 H           3.3083    0.6115   12.3021 H       1  UNL1        0.0000
     15 C           5.1887   -0.6912   13.6841 C.3     1  UNL1        0.0000
     16 H           4.4758   -1.3454   13.1793 H       1  UNL1        0.0000
     17 H           5.6981   -1.2609   14.4654 H       1  UNL1        0.0000
     18 C           8.7297    3.8031   14.1809 C.3     1  UNL1        0.0000
     19 H           9.6372    3.9070   14.7761 H       1  UNL1        0.0000
     20 H           8.7276    4.5990   13.4361 H       1  UNL1        0.0000
     21 C           4.2347    6.5084   12.8481 C.3     1  UNL1        0.0000
     22 H           3.5731    6.2687   12.0256 H       1  UNL1        0.0000
     23 H           4.7554    7.4256   12.5957 H       1  UNL1        0.0000
     24 H           3.6215    6.7033   13.7204 H       1  UNL1        0.0000
     25 C           6.5408    4.9821   11.5397 C.3     1  UNL1        0.0000
     26 H           7.0579    4.0311   11.4511 H       1  UNL1        0.0000
     27 H           7.2822    5.7752   11.5009 H       1  UNL1        0.0000
     28 H           5.9068    5.0924   10.6662 H       1  UNL1        0.0000
     29 C           1.7102    3.8365   13.8087 C.3     1  UNL1        0.0000
     30 H           1.6322    3.5450   14.8513 H       1  UNL1        0.0000
     31 H           0.7946    3.5302   13.3103 H       1  UNL1        0.0000
     32 H           1.7563    4.9195   13.7691 H       1  UNL1        0.0000
     33 C           3.0147    3.4138   11.0786 C.3     1  UNL1        0.0000
     34 H           2.6408    4.4218   10.9483 H       1  UNL1        0.0000
     35 H           2.2935    2.7394   10.6294 H       1  UNL1        0.0000
     36 H           3.9402    3.3405   10.5188 H       1  UNL1        0.0000
     37 C           5.7502    0.5108   10.7817 C.3     1  UNL1        0.0000
     38 H           5.1116    1.3870   10.8379 H       1  UNL1        0.0000
     39 H           5.1665   -0.3037   10.3635 H       1  UNL1        0.0000
     40 H           6.5500    0.7293   10.0804 H       1  UNL1        0.0000
     41 C           7.8569   -1.2355   12.2576 C.3     1  UNL1        0.0000
     42 H           8.6670   -0.8348   11.6619 H       1  UNL1        0.0000
     43 H           7.4638   -2.0998   11.7340 H       1  UNL1        0.0000
     44 H           8.2715   -1.5802   13.1974 H       1  UNL1        0.0000
     45 C           9.5481    2.2495   11.6186 C.3     1  UNL1        0.0000
     46 H           9.4907    1.3084   11.0845 H       1  UNL1        0.0000
     47 H          10.5970    2.5066   11.7159 H       1  UNL1        0.0000
     48 H           9.0807    3.0067   10.9986 H       1  UNL1        0.0000
     49 C           9.7662    0.8415   14.3751 C.3     1  UNL1        0.0000
     50 H           9.1762    0.4176   15.1837 H       1  UNL1        0.0000
     51 H          10.6427    1.3062   14.8173 H       1  UNL1        0.0000
     52 H          10.1135    0.0244   13.7523 H       1  UNL1        0.0000
     53 C           8.0262    4.8011   16.7880 C.ar    1  UNL1        0.0000
     54 C           9.1489    5.6194   16.7258 C.ar    1  UNL1        0.0000
     55 H           9.6283    5.8190   15.7774 H       1  UNL1        0.0000
     56 C           9.6607    6.1943   17.8746 C.ar    1  UNL1        0.0000
     57 H          10.5381    6.8233   17.8146 H       1  UNL1        0.0000
     58 C           9.0525    5.9701   19.0983 C.ar    1  UNL1        0.0000
     59 H           9.4599    6.4151   19.9944 H       1  UNL1        0.0000
     60 C           7.9148    5.1841   19.1644 C.ar    1  UNL1        0.0000
     61 H           7.4245    5.0153   20.1120 H       1  UNL1        0.0000
     62 C           7.4046    4.6082   18.0160 C.ar    1  UNL1        0.0000
     63 H           6.5161    3.9958   18.0622 H       1  UNL1        0.0000
     64 C           3.1680   -0.1654   15.6546 C.ar    1  UNL1        0.0000
     65 C           3.0454   -1.5428   15.7830 C.ar    1  UNL1        0.0000
     66 H           3.6771   -2.2069   15.2122 H       1  UNL1        0.0000
     67 C           2.1130   -2.0791   16.6546 C.ar    1  UNL1        0.0000
     68 H           2.0210   -3.1525   16.7431 H       1  UNL1        0.0000
     69 C           1.3047   -1.2505   17.4131 C.ar    1  UNL1        0.0000
     70 H           0.5836   -1.6752   18.0966 H       1  UNL1        0.0000
     71 C           1.4215    0.1254   17.2912 C.ar    1  UNL1        0.0000
     72 H           0.7946    0.7784   17.8813 H       1  UNL1        0.0000
     73 C           2.3415    0.6616   16.4122 C.ar    1  UNL1        0.0000
     74 H           2.4419    1.7331   16.3026 H       1  UNL1        0.0000
     75 H           6.3896    2.2529   13.2695 H       1  UNL1        0.0000
@<TRIPOS>BOND
     1    40    37    1
     2    39    37    1
     3    36    33    1
     4    35    33    1
     5    28    25    1
     6    37    38    1
     7    37     5    1
     8    34    33    1
     9    48    45    1
    10    33     4    1
    11    46    45    1
    12    26    25    1
    13    27    25    1
    14    25     3    1
    15    45    47    1
    16    45     6    1
    17    42    41    1
    18    43    41    1
    19    22    21    1
    20    41     5    1
    21    41    44    1
    22    14    12    1
    23     5     8    1
    24     5    15    1
    25    23    21    1
    26    21     3    1
    27    21    24    1
    28     4    12    1
    29     4     7    1
    30     4    29    1
    31     3     7    1
    32     3     9    1
    33    16    15    1
    34    12    13    1
    35    12     2    1
    36     8    75    1
    37     8     6    1
    38    31    29    1
    39     6    18    1
    40     6    49    1
    41    20    18    1
    42    15    17    1
    43    15     2    1
    44    52    49    1
    45    32    29    1
    46    29    30    1
    47    18    19    1
    48    18     1    1
    49    49    51    1
    50    49    50    1
    51    10     9    1
    52     2    64    1
    53     9     1    1
    54     9    11    1
    55    66    65    1
    56     1    53    1
    57    64    65   ar
    58    64    73   ar
    59    55    54    1
    60    65    67   ar
    61    74    73    1
    62    73    71   ar
    63    67    68    1
    64    67    69   ar
    65    54    53   ar
    66    54    56   ar
    67    53    62   ar
    68    71    69   ar
    69    71    72    1
    70    69    70    1
    71    57    56    1
    72    56    58   ar
    73    62    63    1
    74    62    60   ar
    75    58    60   ar
    76    58    59    1
    77    60    61    1
