@<TRIPOS>MOLECULE
1,2,5
 71 74 0 0 0
SMALL
GASTEIGER

@<TRIPOS>ATOM
      1 P           2.3678    2.1173    5.0675 P.3     1  UNL1        0.0000
      2 P           1.7380    4.7028    2.5250 P.3     1  UNL1        0.0000
      3 SI          4.1213    0.9186    2.9009 Si      1  UNL1        0.0000
      4 SI          3.4709    3.0100    0.6946 Si      1  UNL1        0.0000
      5 N           3.6704    2.4470    2.2931 N.3     1  UNL1        0.0000
      6 C           2.7896    0.5367    4.2549 C.3     1  UNL1        0.0000
      7 C           2.4299    4.6307    0.8448 C.3     1  UNL1        0.0000
      8 C           5.8576    0.8676    3.7090 C.3     1  UNL1        0.0000
      9 C           4.0673   -0.5199    1.6568 C.3     1  UNL1        0.0000
     10 C           5.1086    3.4263   -0.2039 C.3     1  UNL1        0.0000
     11 C           2.4862    1.8892   -0.5020 C.3     1  UNL1        0.0000
     12 C           0.5625    2.0080    5.3593 C.ar    1  UNL1        0.0000
     13 C          -0.1929    3.1730    5.3168 C.ar    1  UNL1        0.0000
     14 C          -1.5588    3.1328    5.5229 C.ar    1  UNL1        0.0000
     15 C          -2.1817    1.9224    5.7786 C.ar    1  UNL1        0.0000
     16 C          -1.4322    0.7594    5.8433 C.ar    1  UNL1        0.0000
     17 C          -0.0647    0.8005    5.6394 C.ar    1  UNL1        0.0000
     18 C           2.9331    1.8751    6.7867 C.ar    1  UNL1        0.0000
     19 C           2.2205    2.4291    7.8464 C.ar    1  UNL1        0.0000
     20 C           2.6896    2.3145    9.1423 C.ar    1  UNL1        0.0000
     21 C           3.8809    1.6553    9.3967 C.ar    1  UNL1        0.0000
     22 C           4.6043    1.1149    8.3462 C.ar    1  UNL1        0.0000
     23 C           4.1366    1.2287    7.0498 C.ar    1  UNL1        0.0000
     24 C           0.1696    3.7945    2.3003 C.ar    1  UNL1        0.0000
     25 C           0.2549    2.4060    2.2708 C.ar    1  UNL1        0.0000
     26 C          -0.8835    1.6373    2.1303 C.ar    1  UNL1        0.0000
     27 C          -2.1235    2.2489    2.0300 C.ar    1  UNL1        0.0000
     28 C          -2.2146    3.6293    2.0616 C.ar    1  UNL1        0.0000
     29 C          -1.0742    4.4034    2.1960 C.ar    1  UNL1        0.0000
     30 C           1.1379    6.4213    2.6972 C.ar    1  UNL1        0.0000
     31 C           0.9375    6.9154    3.9821 C.ar    1  UNL1        0.0000
     32 C           0.4807    8.2053    4.1790 C.ar    1  UNL1        0.0000
     33 C           0.2245    9.0221    3.0895 C.ar    1  UNL1        0.0000
     34 C           0.4259    8.5410    1.8065 C.ar    1  UNL1        0.0000
     35 C           0.8786    7.2480    1.6096 C.ar    1  UNL1        0.0000
     36 H           3.0970   -0.2027    4.9925 H       1  UNL1        0.0000
     37 H           1.8890    0.1729    3.7616 H       1  UNL1        0.0000
     38 H           1.6304    4.6770    0.1056 H       1  UNL1        0.0000
     39 H           3.0732    5.5015    0.7284 H       1  UNL1        0.0000
     40 H           5.9711    1.6221    4.4804 H       1  UNL1        0.0000
     41 H           6.0712   -0.1011    4.1530 H       1  UNL1        0.0000
     42 H           6.6170    1.0540    2.9562 H       1  UNL1        0.0000
     43 H           3.0781   -0.6589    1.2375 H       1  UNL1        0.0000
     44 H           4.7474   -0.3163    0.8388 H       1  UNL1        0.0000
     45 H           4.3723   -1.4547    2.1142 H       1  UNL1        0.0000
     46 H           5.7515    4.0734    0.3829 H       1  UNL1        0.0000
     47 H           5.6580    2.5104   -0.3922 H       1  UNL1        0.0000
     48 H           4.9356    3.9082   -1.1611 H       1  UNL1        0.0000
     49 H           1.4970    1.6489   -0.1265 H       1  UNL1        0.0000
     50 H           2.3657    2.3664   -1.4700 H       1  UNL1        0.0000
     51 H           3.0160    0.9587   -0.6648 H       1  UNL1        0.0000
     52 H           0.3112    4.1074    5.1053 H       1  UNL1        0.0000
     53 H          -2.1391    4.0428    5.4791 H       1  UNL1        0.0000
     54 H          -3.2502    1.8848    5.9318 H       1  UNL1        0.0000
     55 H          -1.9165   -0.1832    6.0547 H       1  UNL1        0.0000
     56 H           0.5173   -0.1082    5.7006 H       1  UNL1        0.0000
     57 H           1.2908    2.9449    7.6507 H       1  UNL1        0.0000
     58 H           2.1247    2.7428    9.9578 H       1  UNL1        0.0000
     59 H           4.2466    1.5663   10.4091 H       1  UNL1        0.0000
     60 H           5.5384    0.6064    8.5388 H       1  UNL1        0.0000
     61 H           4.7101    0.8172    6.2328 H       1  UNL1        0.0000
     62 H           1.2327    1.9541    2.3624 H       1  UNL1        0.0000
     63 H          -0.8110    0.5593    2.1076 H       1  UNL1        0.0000
     64 H          -3.0169    1.6501    1.9303 H       1  UNL1        0.0000
     65 H          -3.1804    4.1079    1.9840 H       1  UNL1        0.0000
     66 H          -1.1563    5.4806    2.2258 H       1  UNL1        0.0000
     67 H           1.1576    6.2742    4.8242 H       1  UNL1        0.0000
     68 H           0.3279    8.5783    5.1815 H       1  UNL1        0.0000
     69 H          -0.1279   10.0321    3.2392 H       1  UNL1        0.0000
     70 H           0.2285    9.1765    0.9550 H       1  UNL1        0.0000
     71 H           1.0268    6.8815    0.6047 H       1  UNL1        0.0000
@<TRIPOS>BOND
     1    50    11    1
     2    48    10    1
     3    51    11    1
     4    11    49    1
     5    11     4    1
     6    47    10    1
     7    10    46    1
     8    10     4    1
     9    38     7    1
    10    71    35    1
    11     4     7    1
    12     4     5    1
    13    39     7    1
    14    44     9    1
    15     7     2    1
    16    70    34    1
    17    43     9    1
    18    35    34   ar
    19    35    30   ar
    20     9    45    1
    21     9     3    1
    22    34    33   ar
    23    64    27    1
    24    65    28    1
    25    27    28   ar
    26    27    26   ar
    27    28    29   ar
    28    63    26    1
    29    26    25   ar
    30    29    66    1
    31    29    24   ar
    32    25    24   ar
    33    25    62    1
    34     5     3    1
    35    24     2    1
    36     2    30    1
    37    30    31   ar
    38     3     8    1
    39     3     6    1
    40    42     8    1
    41    33    69    1
    42    33    32   ar
    43     8    41    1
    44     8    40    1
    45    37     6    1
    46    31    32   ar
    47    31    67    1
    48    32    68    1
    49     6    36    1
    50     6     1    1
    51     1    12    1
    52     1    18    1
    53    52    13    1
    54    13    12   ar
    55    13    14   ar
    56    12    17   ar
    57    53    14    1
    58    14    15   ar
    59    17    56    1
    60    17    16   ar
    61    15    16   ar
    62    15    54    1
    63    16    55    1
    64    61    23    1
    65    18    23   ar
    66    18    19   ar
    67    23    22   ar
    68    57    19    1
    69    19    20   ar
    70    22    60    1
    71    22    21   ar
    72    20    21   ar
    73    20    58    1
    74    21    59    1
