@<TRIPOS>MOLECULE
1,2,5
 71 74 0 0 0
SMALL
GASTEIGER

@<TRIPOS>ATOM
      1 P           4.7641    2.8004   -0.6695 P.3     1  UNL1        0.0000
      2 P           5.1154    2.0627    2.5679 P.3     1  UNL1        0.0000
      3 SI          1.8776    2.1731   -0.4631 Si      1  UNL1        0.0000
      4 SI          2.1777    1.6235    2.5825 Si      1  UNL1        0.0000
      5 N           2.7064    1.8078    0.9772 N.3     1  UNL1        0.0000
      6 C           3.2670    2.6679   -1.6964 C.3     1  UNL1        0.0000
      7 C           3.6314    2.3894    3.5806 C.3     1  UNL1        0.0000
      8 C           0.7087    3.6827   -0.3791 C.3     1  UNL1        0.0000
      9 C           0.8348    0.7334   -1.1627 C.3     1  UNL1        0.0000
     10 C           0.6000    2.6113    2.9843 C.3     1  UNL1        0.0000
     11 C           1.8528   -0.1514    3.2145 C.3     1  UNL1        0.0000
     12 C           4.6681    4.5458   -0.1414 C.ar    1  UNL1        0.0000
     13 C           5.3652    5.5910   -0.7349 C.ar    1  UNL1        0.0000
     14 C           5.2560    6.8736   -0.2249 C.ar    1  UNL1        0.0000
     15 C           4.4574    7.1229    0.8774 C.ar    1  UNL1        0.0000
     16 C           3.7578    6.0835    1.4703 C.ar    1  UNL1        0.0000
     17 C           3.8669    4.8025    0.9657 C.ar    1  UNL1        0.0000
     18 C           6.1333    2.8759   -1.8855 C.ar    1  UNL1        0.0000
     19 C           5.9610    3.3742   -3.1724 C.ar    1  UNL1        0.0000
     20 C           7.0254    3.4183   -4.0559 C.ar    1  UNL1        0.0000
     21 C           8.2748    2.9669   -3.6647 C.ar    1  UNL1        0.0000
     22 C           8.4553    2.4616   -2.3873 C.ar    1  UNL1        0.0000
     23 C           7.3897    2.4132   -1.5075 C.ar    1  UNL1        0.0000
     24 C           6.1061    3.5912    2.7787 C.ar    1  UNL1        0.0000
     25 C           6.9170    4.0102    1.7347 C.ar    1  UNL1        0.0000
     26 C           7.6897    5.1499    1.8511 C.ar    1  UNL1        0.0000
     27 C           7.6601    5.8818    3.0261 C.ar    1  UNL1        0.0000
     28 C           6.8700    5.4592    4.0826 C.ar    1  UNL1        0.0000
     29 C           6.1001    4.3165    3.9641 C.ar    1  UNL1        0.0000
     30 C           6.1447    0.9942    3.6375 C.ar    1  UNL1        0.0000
     31 C           5.5955    0.0871    4.5365 C.ar    1  UNL1        0.0000
     32 C           6.4115   -0.7492    5.2777 C.ar    1  UNL1        0.0000
     33 C           7.7865   -0.6977    5.1232 C.ar    1  UNL1        0.0000
     34 C           8.3425    0.1907    4.2170 C.ar    1  UNL1        0.0000
     35 C           7.5271    1.0260    3.4771 C.ar    1  UNL1        0.0000
     36 H           3.0532    3.6012   -2.2154 H       1  UNL1        0.0000
     37 H           3.4407    1.8842   -2.4312 H       1  UNL1        0.0000
     38 H           3.7418    2.0040    4.5911 H       1  UNL1        0.0000
     39 H           3.4973    3.4681    3.6412 H       1  UNL1        0.0000
     40 H           1.2143    4.5714   -0.0172 H       1  UNL1        0.0000
     41 H           0.2999    3.9082   -1.3590 H       1  UNL1        0.0000
     42 H          -0.1246    3.4799    0.2812 H       1  UNL1        0.0000
     43 H          -0.0040    0.5522   -0.5002 H       1  UNL1        0.0000
     44 H           0.4336    0.9633   -2.1442 H       1  UNL1        0.0000
     45 H           1.3944   -0.1909   -1.2377 H       1  UNL1        0.0000
     46 H           0.3682    2.5671    4.0427 H       1  UNL1        0.0000
     47 H           0.6873    3.6531    2.7024 H       1  UNL1        0.0000
     48 H          -0.2406    2.1917    2.4461 H       1  UNL1        0.0000
     49 H           1.0728   -0.6187    2.6227 H       1  UNL1        0.0000
     50 H           2.7327   -0.7799    3.1564 H       1  UNL1        0.0000
     51 H           1.5139   -0.1439    4.2464 H       1  UNL1        0.0000
     52 H           6.0030    5.4083   -1.5881 H       1  UNL1        0.0000
     53 H           5.8035    7.6820   -0.6884 H       1  UNL1        0.0000
     54 H           4.3828    8.1244    1.2753 H       1  UNL1        0.0000
     55 H           3.1341    6.2754    2.3317 H       1  UNL1        0.0000
     56 H           3.3370    3.9712    1.4063 H       1  UNL1        0.0000
     57 H           4.9901    3.7307   -3.4845 H       1  UNL1        0.0000
     58 H           6.8800    3.8070   -5.0537 H       1  UNL1        0.0000
     59 H           9.1042    3.0030   -4.3557 H       1  UNL1        0.0000
     60 H           9.4263    2.0999   -2.0810 H       1  UNL1        0.0000
     61 H           7.5159    1.9917   -0.5188 H       1  UNL1        0.0000
     62 H           6.9165    3.4299    0.8229 H       1  UNL1        0.0000
     63 H           8.3097    5.4697    1.0262 H       1  UNL1        0.0000
     64 H           8.2551    6.7783    3.1215 H       1  UNL1        0.0000
     65 H           6.8563    6.0236    5.0041 H       1  UNL1        0.0000
     66 H           5.4953    3.9853    4.7962 H       1  UNL1        0.0000
     67 H           4.5230    0.0269    4.6533 H       1  UNL1        0.0000
     68 H           5.9727   -1.4472    5.9767 H       1  UNL1        0.0000
     69 H           8.4220   -1.3503    5.7035 H       1  UNL1        0.0000
     70 H           9.4146    0.2296    4.0874 H       1  UNL1        0.0000
     71 H           7.9591    1.7187    2.7677 H       1  UNL1        0.0000
@<TRIPOS>BOND
     1    58    20    1
     2    59    21    1
     3    20    21   ar
     4    20    19   ar
     5    21    22   ar
     6    57    19    1
     7    19    18   ar
     8    37     6    1
     9    22    60    1
    10    22    23   ar
    11    36     6    1
    12    44     9    1
    13    18    23   ar
    14    18     1    1
    15     6     1    1
    16     6     3    1
    17    52    13    1
    18    23    61    1
    19    41     8    1
    20    45     9    1
    21     9    43    1
    22     9     3    1
    23    13    14   ar
    24    13    12   ar
    25    53    14    1
    26     1    12    1
    27     3     8    1
    28     3     5    1
    29     8    40    1
    30     8    42    1
    31    14    15   ar
    32    12    17   ar
    33    62    25    1
    34    15    54    1
    35    15    16   ar
    36    17    56    1
    37    17    16   ar
    38     5     4    1
    39    63    26    1
    40    16    55    1
    41    25    26   ar
    42    25    24   ar
    43    26    27   ar
    44    48    10    1
    45     2    24    1
    46     2     7    1
    47     2    30    1
    48     4    10    1
    49     4    11    1
    50     4     7    1
    51    49    11    1
    52    47    10    1
    53    71    35    1
    54    24    29   ar
    55    10    46    1
    56    27    64    1
    57    27    28   ar
    58    50    11    1
    59    11    51    1
    60    35    30   ar
    61    35    34   ar
    62     7    39    1
    63     7    38    1
    64    30    31   ar
    65    29    28   ar
    66    29    66    1
    67    28    65    1
    68    70    34    1
    69    34    33   ar
    70    31    67    1
    71    31    32   ar
    72    33    32   ar
    73    33    69    1
    74    32    68    1
