@<TRIPOS>MOLECULE
1,2,5
 79 78 0 0 0
SMALL
GASTEIGER

@<TRIPOS>ATOM
      1 P           7.6964   -1.0873   12.1464 P.3     1  UNL1        0.0000
      2 P           6.7452    3.0665    9.5237 P.3     1  UNL1        0.0000
      3 SI         10.1959   -0.0395   10.5693 Si      1  UNL1        0.0000
      4 SI          8.8049    1.1717    8.1064 Si      1  UNL1        0.0000
      5 N           8.8774    0.6817    9.7464 N.3     1  UNL1        0.0000
      6 C          11.3566    1.2156   11.4388 C.3     1  UNL1        0.0000
      7 H          11.7954    1.9055   10.7243 H       1  UNL1        0.0000
      8 H          12.1734    0.7086   11.9457 H       1  UNL1        0.0000
      9 H          10.8215    1.8052   12.1781 H       1  UNL1        0.0000
     10 C          11.2664   -1.1260    9.4291 C.3     1  UNL1        0.0000
     11 H          10.6828   -1.6809    8.7049 H       1  UNL1        0.0000
     12 H          11.8551   -1.8313   10.0046 H       1  UNL1        0.0000
     13 H          11.9571   -0.4989    8.8817 H       1  UNL1        0.0000
     14 C           9.5096   -1.1535   11.9860 C.3     1  UNL1        0.0000
     15 H           9.8216   -2.1953   11.9096 H       1  UNL1        0.0000
     16 H           9.9174   -0.7535   12.9127 H       1  UNL1        0.0000
     17 C           7.4657   -1.2677   14.0319 C.3     1  UNL1        0.0000
     18 C           7.7584    0.1118   14.6285 C.3     1  UNL1        0.0000
     19 H           7.8297    0.0406   15.7134 H       1  UNL1        0.0000
     20 H           6.9673    0.8178   14.3906 H       1  UNL1        0.0000
     21 H           8.6954    0.5208   14.2507 H       1  UNL1        0.0000
     22 C           8.4417   -2.2779   14.6453 C.3     1  UNL1        0.0000
     23 H           8.2067   -2.3778   15.7048 H       1  UNL1        0.0000
     24 H           9.4747   -1.9491   14.5712 H       1  UNL1        0.0000
     25 H           8.3577   -3.2610   14.1946 H       1  UNL1        0.0000
     26 C           6.0400   -1.6789   14.3987 C.3     1  UNL1        0.0000
     27 H           5.9007   -1.5626   15.4730 H       1  UNL1        0.0000
     28 H           5.8479   -2.7202   14.1511 H       1  UNL1        0.0000
     29 H           5.3024   -1.0519   13.9057 H       1  UNL1        0.0000
     30 C           7.0532   -2.6049   11.2193 C.3     1  UNL1        0.0000
     31 C           7.6883   -2.5371    9.8292 C.3     1  UNL1        0.0000
     32 H           7.2178   -3.2679    9.1716 H       1  UNL1        0.0000
     33 H           8.7549   -2.7463    9.8649 H       1  UNL1        0.0000
     34 H           7.5429   -1.5472    9.3981 H       1  UNL1        0.0000
     35 C           5.5372   -2.4556   11.0691 C.3     1  UNL1        0.0000
     36 H           5.1429   -3.2635   10.4531 H       1  UNL1        0.0000
     37 H           5.3067   -1.5126   10.5723 H       1  UNL1        0.0000
     38 H           5.0237   -2.4779   12.0262 H       1  UNL1        0.0000
     39 C           7.3920   -3.9498   11.8577 C.3     1  UNL1        0.0000
     40 H           7.0963   -4.7461   11.1745 H       1  UNL1        0.0000
     41 H           6.8554   -4.1026   12.7903 H       1  UNL1        0.0000
     42 H           8.4610   -4.0509   12.0376 H       1  UNL1        0.0000
     43 C           8.1489   -0.1798    6.9143 C.3     1  UNL1        0.0000
     44 H           8.7794   -1.0633    6.9385 H       1  UNL1        0.0000
     45 H           8.1297    0.1787    5.8885 H       1  UNL1        0.0000
     46 H           7.1409   -0.4886    7.1773 H       1  UNL1        0.0000
     47 C          10.4896    1.7606    7.4398 C.3     1  UNL1        0.0000
     48 H          11.0617    0.9040    7.1093 H       1  UNL1        0.0000
     49 H          11.0789    2.2809    8.1846 H       1  UNL1        0.0000
     50 H          10.3647    2.4157    6.5851 H       1  UNL1        0.0000
     51 C           7.5533    2.6305    7.9509 C.3     1  UNL1        0.0000
     52 H           7.9858    3.5303    7.5124 H       1  UNL1        0.0000
     53 H           6.7645    2.2845    7.2849 H       1  UNL1        0.0000
     54 C           7.7347    4.5224   10.2144 C.3     1  UNL1        0.0000
     55 C           9.1937    4.0625   10.2210 C.3     1  UNL1        0.0000
     56 H           9.8021    4.7701   10.7838 H       1  UNL1        0.0000
     57 H           9.5959    3.9918    9.2131 H       1  UNL1        0.0000
     58 H           9.2774    3.0865   10.6976 H       1  UNL1        0.0000
     59 C           7.2893    4.7471   11.6616 C.3     1  UNL1        0.0000
     60 H           7.9056    5.5168   12.1254 H       1  UNL1        0.0000
     61 H           7.4156    3.8272   12.2334 H       1  UNL1        0.0000
     62 H           6.2506    5.0579   11.7300 H       1  UNL1        0.0000
     63 C           7.6257    5.8209    9.4186 C.3     1  UNL1        0.0000
     64 H           8.3333    6.5423    9.8276 H       1  UNL1        0.0000
     65 H           6.6337    6.2590    9.4899 H       1  UNL1        0.0000
     66 H           7.8779    5.6713    8.3702 H       1  UNL1        0.0000
     67 C           5.0150    3.6136    8.9326 C.3     1  UNL1        0.0000
     68 C           4.2835    4.4454    9.9858 C.3     1  UNL1        0.0000
     69 H           3.2403    4.5547    9.6909 H       1  UNL1        0.0000
     70 H           4.7081    5.4425   10.0748 H       1  UNL1        0.0000
     71 H           4.2971    3.9623   10.9590 H       1  UNL1        0.0000
     72 C           5.0758    4.4151    7.6273 C.3     1  UNL1        0.0000
     73 H           4.0697    4.7632    7.3944 H       1  UNL1        0.0000
     74 H           5.4125    3.8103    6.7896 H       1  UNL1        0.0000
     75 H           5.7169    5.2867    7.7054 H       1  UNL1        0.0000
     76 C           4.2253    2.3272    8.6743 C.3     1  UNL1        0.0000
     77 H           3.3074    2.5565    8.1340 H       1  UNL1        0.0000
     78 H           3.9521    1.8411    9.6069 H       1  UNL1        0.0000
     79 H           4.8014    1.6155    8.0830 H       1  UNL1        0.0000
@<TRIPOS>BOND
     1    45    43    1
     2    50    47    1
     3    74    72    1
     4    43    44    1
     5    43    46    1
     6    43     4    1
     7    48    47    1
     8    53    51    1
     9    73    72    1
    10    47     4    1
    11    47    49    1
    12    52    51    1
    13    72    75    1
    14    72    67    1
    15    51     4    1
    16    51     2    1
    17    79    76    1
    18     4     5    1
    19    77    76    1
    20    66    63    1
    21    76    67    1
    22    76    78    1
    23    11    10    1
    24    13    10    1
    25    67     2    1
    26    67    68    1
    27    32    31    1
    28    57    55    1
    29    34    31    1
    30    63    65    1
    31    63    64    1
    32    63    54    1
    33    10    12    1
    34    10     3    1
    35     2    54    1
    36    69    68    1
    37     5     3    1
    38    31    33    1
    39    31    30    1
    40    68    70    1
    41    68    71    1
    42    54    55    1
    43    54    59    1
    44    55    58    1
    45    55    56    1
    46    36    35    1
    47     3     6    1
    48     3    14    1
    49    37    35    1
    50     7     6    1
    51    35    30    1
    52    35    38    1
    53    40    39    1
    54    30    39    1
    55    30     1    1
    56     6     8    1
    57     6     9    1
    58    59    62    1
    59    59    60    1
    60    59    61    1
    61    39    42    1
    62    39    41    1
    63    15    14    1
    64    14     1    1
    65    14    16    1
    66     1    17    1
    67    29    26    1
    68    17    26    1
    69    17    18    1
    70    17    22    1
    71    28    26    1
    72    25    22    1
    73    21    18    1
    74    20    18    1
    75    26    27    1
    76    24    22    1
    77    18    19    1
    78    22    23    1
