@<TRIPOS>MOLECULE
1,3,35
 67 66 0 0 0
SMALL
GASTEIGER

@<TRIPOS>ATOM
      1 P          10.5427    5.8024    5.8527 P.3     1  UNL1        0.0000
      2 SI          8.7941    8.3793    5.3209 Si      1  UNL1        0.0000
      3 N           8.6441    7.5704    3.8259 N.3     1  UNL1        0.0000
      4 C           9.8339    7.3253    6.5753 C.3     1  UNL1        0.0000
      5 C           7.1107    8.5957    6.2176 C.3     1  UNL1        0.0000
      6 C           9.6007   10.1117    5.2680 C.3     1  UNL1        0.0000
      7 C          12.2883    6.3631    5.4790 C.3     1  UNL1        0.0000
      8 C          10.7024    4.7297    7.3936 C.3     1  UNL1        0.0000
      9 C          12.2075    7.4386    4.4009 C.3     1  UNL1        0.0000
     10 C          13.1321    5.1939    4.9792 C.3     1  UNL1        0.0000
     11 C          11.7655    5.1669    8.3939 C.3     1  UNL1        0.0000
     12 C          10.8551    3.2631    6.9973 C.3     1  UNL1        0.0000
     13 H           9.1568    7.0043    7.3682 H       1  UNL1        0.0000
     14 H          10.6285    7.9143    7.0361 H       1  UNL1        0.0000
     15 H           7.2340    9.0904    7.1765 H       1  UNL1        0.0000
     16 H           6.4315    9.1987    5.6247 H       1  UNL1        0.0000
     17 H           6.6292    7.6386    6.4000 H       1  UNL1        0.0000
     18 H          10.1238   10.3607    6.1862 H       1  UNL1        0.0000
     19 H          10.3026   10.1979    4.4461 H       1  UNL1        0.0000
     20 H           8.8362   10.8637    5.1145 H       1  UNL1        0.0000
     21 H          12.7327    6.7873    6.3876 H       1  UNL1        0.0000
     22 H           9.7174    4.8382    7.8702 H       1  UNL1        0.0000
     23 H          13.2065    7.7230    4.0713 H       1  UNL1        0.0000
     24 H          11.6468    7.0636    3.5426 H       1  UNL1        0.0000
     25 H          11.7008    8.3256    4.7692 H       1  UNL1        0.0000
     26 H          13.3058    4.4599    5.7623 H       1  UNL1        0.0000
     27 H          12.6288    4.7027    4.1472 H       1  UNL1        0.0000
     28 H          14.1025    5.5496    4.6339 H       1  UNL1        0.0000
     29 H          11.6654    4.5916    9.3137 H       1  UNL1        0.0000
     30 H          12.7669    5.0017    8.0042 H       1  UNL1        0.0000
     31 H          11.6551    6.2206    8.6419 H       1  UNL1        0.0000
     32 H          10.1036    3.0023    6.2500 H       1  UNL1        0.0000
     33 H          11.8384    3.0649    6.5786 H       1  UNL1        0.0000
     34 H          10.7219    2.6184    7.8651 H       1  UNL1        0.0000
     35 P           6.7455    5.8023    1.7991 P.3     1  UNL1        0.0000
     36 C           7.4544    7.3252    1.0765 C.3     1  UNL1        0.0000
     37 SI          8.4940    8.3793    2.3310 Si      1  UNL1        0.0000
     38 C          10.1774    8.5959    1.4343 C.3     1  UNL1        0.0000
     39 H          10.0541    9.0906    0.4754 H       1  UNL1        0.0000
     40 H          10.8566    9.1989    2.0272 H       1  UNL1        0.0000
     41 H          10.6591    7.6388    1.2519 H       1  UNL1        0.0000
     42 C           7.6873   10.1116    2.3839 C.3     1  UNL1        0.0000
     43 H           7.1641   10.3606    1.4657 H       1  UNL1        0.0000
     44 H           6.9855   10.1979    3.2058 H       1  UNL1        0.0000
     45 H           8.4518   10.8637    2.5372 H       1  UNL1        0.0000
     46 H           8.1315    7.0041    0.2837 H       1  UNL1        0.0000
     47 H           6.6598    7.9142    0.6156 H       1  UNL1        0.0000
     48 C           4.9999    6.3632    2.1728 C.3     1  UNL1        0.0000
     49 C           5.0807    7.4386    3.2509 C.3     1  UNL1        0.0000
     50 H           4.0817    7.7231    3.5805 H       1  UNL1        0.0000
     51 H           5.6414    7.0637    4.1091 H       1  UNL1        0.0000
     52 H           5.5874    8.3257    2.8825 H       1  UNL1        0.0000
     53 C           4.1560    5.1939    2.6726 C.3     1  UNL1        0.0000
     54 H           3.9823    4.4599    1.8896 H       1  UNL1        0.0000
     55 H           4.6593    4.7028    3.5046 H       1  UNL1        0.0000
     56 H           3.1856    5.5497    3.0179 H       1  UNL1        0.0000
     57 H           4.5555    6.7873    1.2642 H       1  UNL1        0.0000
     58 C           6.5858    4.7296    0.2583 C.3     1  UNL1        0.0000
     59 C           5.5226    5.1668   -0.7421 C.3     1  UNL1        0.0000
     60 H           5.6227    4.5916   -1.6618 H       1  UNL1        0.0000
     61 H           4.5213    5.0017   -0.3523 H       1  UNL1        0.0000
     62 H           5.6331    6.2206   -0.9900 H       1  UNL1        0.0000
     63 C           6.4330    3.2630    0.6546 C.3     1  UNL1        0.0000
     64 H           7.1845    3.0022    1.4019 H       1  UNL1        0.0000
     65 H           5.4497    3.0649    1.0734 H       1  UNL1        0.0000
     66 H           6.5661    2.6183   -0.2132 H       1  UNL1        0.0000
     67 H           7.5708    4.8381   -0.2184 H       1  UNL1        0.0000
@<TRIPOS>BOND
     1    60    59    1
     2    62    59    1
     3    59    61    1
     4    59    58    1
     5    67    58    1
     6    66    63    1
     7    58    63    1
     8    58    35    1
     9    46    36    1
    10    39    38    1
    11    47    36    1
    12    63    65    1
    13    63    64    1
    14    36    35    1
    15    36    37    1
    16    41    38    1
    17    57    48    1
    18    38    40    1
    19    38    37    1
    20    43    42    1
    21    35    48    1
    22    54    53    1
    23    48    53    1
    24    48    49    1
    25    37    42    1
    26    37     3    1
    27    42    45    1
    28    42    44    1
    29    53    56    1
    30    53    55    1
    31    52    49    1
    32    49    50    1
    33    49    51    1
    34    24     9    1
    35     3     2    1
    36    23     9    1
    37    27    10    1
    38     9    25    1
    39     9     7    1
    40    19     6    1
    41    28    10    1
    42    10     7    1
    43    10    26    1
    44    20     6    1
    45     6     2    1
    46     6    18    1
    47     2     5    1
    48     2     4    1
    49     7     1    1
    50     7    21    1
    51    16     5    1
    52     1     4    1
    53     1     8    1
    54     5    17    1
    55     5    15    1
    56    32    12    1
    57     4    14    1
    58     4    13    1
    59    33    12    1
    60    12     8    1
    61    12    34    1
    62     8    22    1
    63     8    11    1
    64    30    11    1
    65    11    31    1
    66    11    29    1
