@<TRIPOS>MOLECULE
1,2,5
 67 66 0 0 0
SMALL
GASTEIGER

@<TRIPOS>ATOM
      1 P          -0.1343    0.8921    6.5948 P.3     1  UNL1        0.0000
      2 P           3.1510    4.3183    4.3093 P.3     1  UNL1        0.0000
      3 SI          2.6985    1.1704    7.7405 Si      1  UNL1        0.0000
      4 SI          4.3203    1.6394    5.2583 Si      1  UNL1        0.0000
      5 N           2.8696    1.8117    6.1589 N.3     1  UNL1        0.0000
      6 C           0.8081    1.0194    8.1440 C.3     1  UNL1        0.0000
      7 C           4.3343    3.0074    3.8790 C.3     1  UNL1        0.0000
      8 C           3.4701   -0.5573    8.0129 C.3     1  UNL1        0.0000
      9 C           3.3889    2.3336    9.0958 C.3     1  UNL1        0.0000
     10 C           5.9224    1.8496    6.2790 C.3     1  UNL1        0.0000
     11 C           4.4526   -0.0244    4.3242 C.3     1  UNL1        0.0000
     12 C          -1.9520    0.9686    7.0823 C.3     1  UNL1        0.0000
     13 C           0.1379   -0.8888    6.0960 C.3     1  UNL1        0.0000
     14 C           3.1371    5.4683    2.8178 C.3     1  UNL1        0.0000
     15 C           3.9819    5.2229    5.7225 C.3     1  UNL1        0.0000
     16 C          -2.1722    1.7777    8.3550 C.3     1  UNL1        0.0000
     17 C          -2.6767    1.6346    5.9114 C.3     1  UNL1        0.0000
     18 C          -0.6901   -1.2037    4.8512 C.3     1  UNL1        0.0000
     19 C          -0.1041   -1.9174    7.1962 C.3     1  UNL1        0.0000
     20 C           2.4818    4.6899    1.6747 C.3     1  UNL1        0.0000
     21 C           4.4751    6.0447    2.3694 C.3     1  UNL1        0.0000
     22 C           3.2001    6.5018    6.0193 C.3     1  UNL1        0.0000
     23 C           5.4783    5.4971    5.6158 C.3     1  UNL1        0.0000
     24 H           0.5079    1.9538    8.6171 H       1  UNL1        0.0000
     25 H           0.5677    0.2003    8.8216 H       1  UNL1        0.0000
     26 H           3.9654    2.5495    2.9600 H       1  UNL1        0.0000
     27 H           5.3259    3.4164    3.6843 H       1  UNL1        0.0000
     28 H           3.2175   -0.9599    8.9882 H       1  UNL1        0.0000
     29 H           3.1614   -1.2756    7.2615 H       1  UNL1        0.0000
     30 H           4.5492   -0.4789    7.9627 H       1  UNL1        0.0000
     31 H           3.1757    1.9580   10.0915 H       1  UNL1        0.0000
     32 H           4.4648    2.4313    9.0052 H       1  UNL1        0.0000
     33 H           2.9553    3.3263    9.0172 H       1  UNL1        0.0000
     34 H           6.0661    0.9733    6.8990 H       1  UNL1        0.0000
     35 H           6.7970    1.9454    5.6441 H       1  UNL1        0.0000
     36 H           5.8849    2.7094    6.9375 H       1  UNL1        0.0000
     37 H           4.5271   -0.8489    5.0246 H       1  UNL1        0.0000
     38 H           3.5774   -0.1921    3.7038 H       1  UNL1        0.0000
     39 H           5.3271   -0.0580    3.6819 H       1  UNL1        0.0000
     40 H          -2.3330   -0.0497    7.2229 H       1  UNL1        0.0000
     41 H           1.2007   -0.9085    5.8127 H       1  UNL1        0.0000
     42 H           2.4690    6.2934    3.1041 H       1  UNL1        0.0000
     43 H           3.8241    4.5216    6.5579 H       1  UNL1        0.0000
     44 H          -1.7488    1.2769    9.2224 H       1  UNL1        0.0000
     45 H          -1.7170    2.7632    8.2585 H       1  UNL1        0.0000
     46 H          -3.2397    1.9107    8.5291 H       1  UNL1        0.0000
     47 H          -2.2876    2.6482    5.7867 H       1  UNL1        0.0000
     48 H          -2.5143    1.0833    4.9848 H       1  UNL1        0.0000
     49 H          -3.7489    1.6926    6.0977 H       1  UNL1        0.0000
     50 H          -1.7546   -1.2169    5.0814 H       1  UNL1        0.0000
     51 H          -0.4967   -0.4640    4.0737 H       1  UNL1        0.0000
     52 H          -0.4194   -2.1820    4.4569 H       1  UNL1        0.0000
     53 H          -1.1103   -1.8364    7.6034 H       1  UNL1        0.0000
     54 H           0.0096   -2.9196    6.7850 H       1  UNL1        0.0000
     55 H           0.6111   -1.8079    8.0066 H       1  UNL1        0.0000
     56 H           1.6349    4.1022    2.0366 H       1  UNL1        0.0000
     57 H           2.1324    5.3664    0.8954 H       1  UNL1        0.0000
     58 H           3.1945    3.9997    1.2276 H       1  UNL1        0.0000
     59 H           5.2264    5.2640    2.2784 H       1  UNL1        0.0000
     60 H           4.3585    6.5135    1.3926 H       1  UNL1        0.0000
     61 H           4.8353    6.8027    3.0591 H       1  UNL1        0.0000
     62 H           3.5612    6.9600    6.9384 H       1  UNL1        0.0000
     63 H           3.3116    7.2257    5.2132 H       1  UNL1        0.0000
     64 H           2.1418    6.2744    6.1504 H       1  UNL1        0.0000
     65 H           6.0332    4.5940    5.3806 H       1  UNL1        0.0000
     66 H           5.6983    6.2507    4.8655 H       1  UNL1        0.0000
     67 H           5.8379    5.8691    6.5747 H       1  UNL1        0.0000
@<TRIPOS>BOND
     1    57    20    1
     2    58    20    1
     3    60    21    1
     4    20    56    1
     5    20    14    1
     6    59    21    1
     7    21    14    1
     8    21    61    1
     9    14    42    1
    10    14     2    1
    11    26     7    1
    12    39    11    1
    13    27     7    1
    14    38    11    1
    15     7     2    1
    16     7     4    1
    17    51    18    1
    18     2    15    1
    19    11    37    1
    20    11     4    1
    21    52    18    1
    22    18    50    1
    23    18    13    1
    24    66    23    1
    25    48    17    1
    26    63    22    1
    27     4     5    1
    28     4    10    1
    29    65    23    1
    30    23    15    1
    31    23    67    1
    32    35    10    1
    33    15    22    1
    34    15    43    1
    35    47    17    1
    36    41    13    1
    37    17    49    1
    38    17    12    1
    39    22    64    1
    40    22    62    1
    41    13     1    1
    42    13    19    1
    43     5     3    1
    44    10    34    1
    45    10    36    1
    46     1    12    1
    47     1     6    1
    48    54    19    1
    49    12    40    1
    50    12    16    1
    51    19    53    1
    52    19    55    1
    53    29     8    1
    54     3     8    1
    55     3     6    1
    56     3     9    1
    57    30     8    1
    58     8    28    1
    59     6    24    1
    60     6    25    1
    61    45    16    1
    62    16    46    1
    63    16    44    1
    64    32     9    1
    65    33     9    1
    66     9    31    1
