@<TRIPOS>MOLECULE
1,2,5
 95 98 0 0 0
SMALL
GASTEIGER

@<TRIPOS>ATOM
      1 P          -2.2788   10.8212    4.2359 P.3     1  UNL1        0.0000
      2 P           0.5799    7.0561    2.9041 P.3     1  UNL1        0.0000
      3 SI         -2.1065    8.7922    6.4839 Si      1  UNL1        0.0000
      4 SI         -0.9763    6.2460    5.4625 Si      1  UNL1        0.0000
      5 N          -1.4038    7.8771    5.2302 N.3     1  UNL1        0.0000
      6 C          -0.8468    9.6150    7.6742 C.3     1  UNL1        0.0000
      7 C          -3.3401    7.8676    7.6029 C.3     1  UNL1        0.0000
      8 C          -3.1706   10.1811    5.6691 C.3     1  UNL1        0.0000
      9 C          -3.6257   11.6723    3.2563 C.3     1  UNL1        0.0000
     10 C          -4.2408   12.9176    3.8858 C.3     1  UNL1        0.0000
     11 C          -5.4658   13.3420    3.0762 C.3     1  UNL1        0.0000
     12 C          -5.0772   13.6228    1.6267 C.3     1  UNL1        0.0000
     13 C          -4.4093   12.4014    0.9991 C.3     1  UNL1        0.0000
     14 C          -3.1965   11.9775    1.8241 C.3     1  UNL1        0.0000
     15 C          -1.1120   12.0758    4.9710 C.3     1  UNL1        0.0000
     16 C          -1.6040   13.0646    6.0250 C.3     1  UNL1        0.0000
     17 C          -0.3985   13.7922    6.6218 C.3     1  UNL1        0.0000
     18 C           0.3819   14.5283    5.5369 C.3     1  UNL1        0.0000
     19 C           0.8376   13.5557    4.4525 C.3     1  UNL1        0.0000
     20 C          -0.3617   12.8166    3.8653 C.3     1  UNL1        0.0000
     21 C          -2.4479    5.0109    5.4427 C.3     1  UNL1        0.0000
     22 C          -0.0501    5.8604    7.0850 C.3     1  UNL1        0.0000
     23 C           0.1455    5.6716    3.9960 C.3     1  UNL1        0.0000
     24 C           0.6890    6.1906    1.2484 C.3     1  UNL1        0.0000
     25 C           1.8472    5.2059    1.1138 C.3     1  UNL1        0.0000
     26 C           1.6920    4.4096   -0.1817 C.3     1  UNL1        0.0000
     27 C           1.6457    5.3466   -1.3857 C.3     1  UNL1        0.0000
     28 C           0.5132    6.3598   -1.2374 C.3     1  UNL1        0.0000
     29 C           0.6776    7.1471    0.0604 C.3     1  UNL1        0.0000
     30 C           2.3410    7.4147    3.3937 C.3     1  UNL1        0.0000
     31 C           2.8985    8.5519    2.5387 C.3     1  UNL1        0.0000
     32 C           4.2914    8.9749    2.9984 C.3     1  UNL1        0.0000
     33 C           4.2695    9.3773    4.4672 C.3     1  UNL1        0.0000
     34 C           3.7830    8.2050    5.3102 C.3     1  UNL1        0.0000
     35 C           2.3827    7.7825    4.8762 C.3     1  UNL1        0.0000
     36 H          -0.5497    8.8929    8.4281 H       1  UNL1        0.0000
     37 H          -1.2591   10.4771    8.1910 H       1  UNL1        0.0000
     38 H           0.0554    9.9328    7.1604 H       1  UNL1        0.0000
     39 H          -4.1387    7.3916    7.0434 H       1  UNL1        0.0000
     40 H          -3.7932    8.5293    8.3337 H       1  UNL1        0.0000
     41 H          -2.8134    7.0916    8.1453 H       1  UNL1        0.0000
     42 H          -4.1161    9.7649    5.3204 H       1  UNL1        0.0000
     43 H          -3.3991   10.9863    6.3639 H       1  UNL1        0.0000
     44 H          -4.4109   10.9028    3.2130 H       1  UNL1        0.0000
     45 H          -3.5157   13.7323    3.8718 H       1  UNL1        0.0000
     46 H          -4.5275   12.7258    4.9219 H       1  UNL1        0.0000
     47 H          -6.2150   12.5469    3.1041 H       1  UNL1        0.0000
     48 H          -5.9117   14.2350    3.5203 H       1  UNL1        0.0000
     49 H          -4.3832   14.4661    1.5976 H       1  UNL1        0.0000
     50 H          -5.9637   13.9007    1.0526 H       1  UNL1        0.0000
     51 H          -4.1037   12.6306   -0.0238 H       1  UNL1        0.0000
     52 H          -5.1280   11.5793    0.9555 H       1  UNL1        0.0000
     53 H          -2.4615   12.7828    1.8242 H       1  UNL1        0.0000
     54 H          -2.7159   11.0940    1.3957 H       1  UNL1        0.0000
     55 H          -0.3920   11.4052    5.4609 H       1  UNL1        0.0000
     56 H          -2.1381   12.5517    6.8256 H       1  UNL1        0.0000
     57 H          -2.2761   13.8020    5.5869 H       1  UNL1        0.0000
     58 H          -0.7367   14.5013    7.3814 H       1  UNL1        0.0000
     59 H           0.2560   13.0663    7.1087 H       1  UNL1        0.0000
     60 H           1.2456   15.0303    5.9778 H       1  UNL1        0.0000
     61 H          -0.2564   15.2950    5.0907 H       1  UNL1        0.0000
     62 H           1.5300   12.8292    4.8808 H       1  UNL1        0.0000
     63 H           1.3651   14.0972    3.6648 H       1  UNL1        0.0000
     64 H          -0.0379   12.0838    3.1199 H       1  UNL1        0.0000
     65 H          -1.0251   13.5407    3.3887 H       1  UNL1        0.0000
     66 H          -3.0474    5.1525    6.3355 H       1  UNL1        0.0000
     67 H          -2.1017    3.9806    5.4441 H       1  UNL1        0.0000
     68 H          -3.1099    5.1337    4.5891 H       1  UNL1        0.0000
     69 H           0.6909    6.6122    7.3326 H       1  UNL1        0.0000
     70 H           0.4419    4.8930    7.0605 H       1  UNL1        0.0000
     71 H          -0.7693    5.8391    7.8962 H       1  UNL1        0.0000
     72 H           1.0626    5.2078    4.3575 H       1  UNL1        0.0000
     73 H          -0.3901    4.9310    3.4010 H       1  UNL1        0.0000
     74 H          -0.2464    5.6131    1.2109 H       1  UNL1        0.0000
     75 H           1.8708    4.5221    1.9657 H       1  UNL1        0.0000
     76 H           2.7939    5.7481    1.0825 H       1  UNL1        0.0000
     77 H           2.5240    3.7098   -0.2878 H       1  UNL1        0.0000
     78 H           0.7690    3.8258   -0.1416 H       1  UNL1        0.0000
     79 H           1.5118    4.7665   -2.3013 H       1  UNL1        0.0000
     80 H           2.5963    5.8794   -1.4638 H       1  UNL1        0.0000
     81 H          -0.4445    5.8337   -1.2296 H       1  UNL1        0.0000
     82 H           0.5119    7.0422   -2.0899 H       1  UNL1        0.0000
     83 H          -0.1296    7.8706    0.1917 H       1  UNL1        0.0000
     84 H           1.6130    7.7050    0.0209 H       1  UNL1        0.0000
     85 H           2.9303    6.5022    3.2369 H       1  UNL1        0.0000
     86 H           2.9497    8.2374    1.4958 H       1  UNL1        0.0000
     87 H           2.2026    9.3943    2.6041 H       1  UNL1        0.0000
     88 H           4.9909    8.1453    2.8632 H       1  UNL1        0.0000
     89 H           4.6399    9.8087    2.3856 H       1  UNL1        0.0000
     90 H           5.2671    9.6847    4.7887 H       1  UNL1        0.0000
     91 H           3.5918   10.2229    4.5968 H       1  UNL1        0.0000
     92 H           3.7695    8.4809    6.3668 H       1  UNL1        0.0000
     93 H           4.4741    7.3654    5.1943 H       1  UNL1        0.0000
     94 H           1.6836    8.6034    5.0510 H       1  UNL1        0.0000
     95 H           2.0576    6.9344    5.4786 H       1  UNL1        0.0000
@<TRIPOS>BOND
     1    79    27    1
     2    82    28    1
     3    80    27    1
     4    27    28    1
     5    27    26    1
     6    28    81    1
     7    28    29    1
     8    77    26    1
     9    26    78    1
    10    26    25    1
    11    51    13    1
    12    84    29    1
    13    29    83    1
    14    29    24    1
    15    52    13    1
    16    13    12    1
    17    13    14    1
    18    50    12    1
    19    76    25    1
    20    25    24    1
    21    25    75    1
    22    74    24    1
    23    24     2    1
    24    54    14    1
    25    86    31    1
    26    49    12    1
    27    12    11    1
    28    14    53    1
    29    14     9    1
    30    89    32    1
    31    31    87    1
    32    31    32    1
    33    31    30    1
    34    88    32    1
    35     2    30    1
    36     2    23    1
    37    32    33    1
    38    11    47    1
    39    11    48    1
    40    11    10    1
    41    64    20    1
    42    44     9    1
    43    85    30    1
    44     9    10    1
    45     9     1    1
    46    65    20    1
    47    30    35    1
    48    73    23    1
    49    63    19    1
    50    20    19    1
    51    20    15    1
    52    45    10    1
    53    10    46    1
    54    23    72    1
    55    23     4    1
    56     1    15    1
    57     1     8    1
    58    19    62    1
    59    19    18    1
    60    33    91    1
    61    33    90    1
    62    33    34    1
    63    68    21    1
    64    35    94    1
    65    35    34    1
    66    35    95    1
    67    15    55    1
    68    15    16    1
    69    61    18    1
    70    93    34    1
    71     5     4    1
    72     5     3    1
    73    34    92    1
    74    42     8    1
    75    21    67    1
    76    21     4    1
    77    21    66    1
    78     4    22    1
    79    18    60    1
    80    18    17    1
    81    57    16    1
    82     8    43    1
    83     8     3    1
    84    16    17    1
    85    16    56    1
    86     3     7    1
    87     3     6    1
    88    17    59    1
    89    17    58    1
    90    39     7    1
    91    70    22    1
    92    22    69    1
    93    22    71    1
    94    38     6    1
    95     7    41    1
    96     7    40    1
    97     6    37    1
    98     6    36    1
