@<TRIPOS>MOLECULE
1,2,3
 69 70 0 0 0
SMALL
GASTEIGER

@<TRIPOS>ATOM
      1 P           7.2370    3.6475    3.8761 P.3     1  UNL1       -0.0674
      2 P           2.5675    4.0212    5.5571 P.3     1  UNL1       -0.0674
      3 N           5.3605    4.8409    5.7194 N.pl3   1  UNL1       -0.2137
      4 C           7.4407    5.2926    4.6006 C.ar    1  UNL1        0.0002
      5 C           6.4304    5.6801    5.5076 C.ar    1  UNL1        0.0613
      6 C           6.5539    6.9423    6.1047 C.ar    1  UNL1       -0.0378
      7 H           5.7774    7.2840    6.7742 H       1  UNL1        0.0637
      8 C           7.6302    7.7595    5.8330 C.ar    1  UNL1       -0.0570
      9 H           7.6898    8.7280    6.3093 H       1  UNL1        0.0621
     10 C           8.6296    7.3719    4.9472 C.ar    1  UNL1       -0.0497
     11 C           8.5099    6.1329    4.3320 C.ar    1  UNL1       -0.0494
     12 H           9.2707    5.8249    3.6288 H       1  UNL1        0.0627
     13 C           9.8011    8.2590    4.6466 C.3     1  UNL1       -0.0397
     14 H           9.7205    9.2003    5.1840 H       1  UNL1        0.0278
     15 H           9.8536    8.4730    3.5796 H       1  UNL1        0.0278
     16 H          10.7338    7.7743    4.9357 H       1  UNL1        0.0278
     17 C           8.4463    2.6369    4.8970 C.3     1  UNL1       -0.0219
     18 H           9.4568    2.9693    4.6320 H       1  UNL1        0.0346
     19 C           8.2773    1.1534    4.5884 C.3     1  UNL1       -0.0584
     20 H           7.3025    0.8175    4.9360 H       1  UNL1        0.0236
     21 H           9.0401    0.5701    5.1030 H       1  UNL1        0.0236
     22 H           8.3550    0.9533    3.5214 H       1  UNL1        0.0236
     23 C           8.2056    2.9008    6.3802 C.3     1  UNL1       -0.0584
     24 H           8.4026    3.9419    6.6292 H       1  UNL1        0.0236
     25 H           8.8623    2.2730    6.9810 H       1  UNL1        0.0236
     26 H           7.1762    2.6672    6.6482 H       1  UNL1        0.0236
     27 C           7.9271    3.7616    2.1429 C.3     1  UNL1       -0.0219
     28 H           7.7383    4.8030    1.8613 H       1  UNL1        0.0346
     29 C           7.0843    2.8643    1.2375 C.3     1  UNL1       -0.0584
     30 H           7.2147    1.8148    1.4975 H       1  UNL1        0.0236
     31 H           7.3772    2.9961    0.1969 H       1  UNL1        0.0236
     32 H           6.0310    3.1250    1.3421 H       1  UNL1        0.0236
     33 C           9.4124    3.4459    1.9856 C.3     1  UNL1       -0.0584
     34 H          10.0336    4.0626    2.6306 H       1  UNL1        0.0236
     35 H           9.7104    3.6353    0.9552 H       1  UNL1        0.0236
     36 H           9.6195    2.4011    2.2048 H       1  UNL1        0.0236
     37 C           3.4442    4.3901    7.0991 C.ar    1  UNL1        0.0002
     38 C           4.7919    4.7928    6.9660 C.ar    1  UNL1        0.0613
     39 C           5.5038    5.0343    8.1541 C.ar    1  UNL1       -0.0378
     40 H           6.5500    5.2970    8.0919 H       1  UNL1        0.0637
     41 C           4.9059    4.9095    9.3866 C.ar    1  UNL1       -0.0570
     42 H           5.4882    5.0965   10.2781 H       1  UNL1        0.0621
     43 C           3.5716    4.5293    9.5128 C.ar    1  UNL1       -0.0497
     44 C           2.8623    4.2630    8.3536 C.ar    1  UNL1       -0.0494
     45 H           1.8328    3.9446    8.4334 H       1  UNL1        0.0627
     46 C           2.9379    4.4059   10.8663 C.3     1  UNL1       -0.0397
     47 H           3.5147    3.7312   11.4975 H       1  UNL1        0.0278
     48 H           1.9227    4.0244   10.7876 H       1  UNL1        0.0278
     49 H           2.9049    5.3768   11.3611 H       1  UNL1        0.0278
     50 C           1.4035    2.6135    5.9902 C.3     1  UNL1       -0.0219
     51 H           1.9131    2.0779    6.8013 H       1  UNL1        0.0346
     52 C           1.3002    1.6799    4.7844 C.3     1  UNL1       -0.0584
     53 H           0.8815    2.1972    3.9224 H       1  UNL1        0.0236
     54 H           0.6621    0.8281    5.0168 H       1  UNL1        0.0236
     55 H           2.2815    1.2986    4.5074 H       1  UNL1        0.0236
     56 C           0.0135    3.0324    6.4622 C.3     1  UNL1       -0.0584
     57 H           0.0544    3.7379    7.2885 H       1  UNL1        0.0236
     58 H          -0.5294    2.1508    6.8012 H       1  UNL1        0.0236
     59 H          -0.5565    3.4843    5.6542 H       1  UNL1        0.0236
     60 C           1.5454    5.5613    5.3013 C.3     1  UNL1       -0.0219
     61 H           0.8126    5.6507    6.1117 H       1  UNL1        0.0346
     62 C           0.8525    5.4702    3.9480 C.3     1  UNL1       -0.0584
     63 H           1.6057    5.3256    3.1759 H       1  UNL1        0.0236
     64 H           0.3059    6.3881    3.7368 H       1  UNL1        0.0236
     65 H           0.1473    4.6428    3.9112 H       1  UNL1        0.0236
     66 C           2.5006    6.7505    5.3342 C.3     1  UNL1       -0.0584
     67 H           2.9259    6.8795    6.3282 H       1  UNL1        0.0236
     68 H           1.9733    7.6652    5.0677 H       1  UNL1        0.0236
     69 H           3.3117    6.5920    4.6216 H       1  UNL1        0.0236
@<TRIPOS>BOND
     1    31    29    1
     2    35    33    1
     3    29    32    1
     4    29    30    1
     5    29    27    1
     6    28    27    1
     7    33    27    1
     8    33    36    1
     9    33    34    1
    10    27     1    1
    11    63    62    1
    12    22    19    1
    13    15    13    1
    14    12    11    1
    15    64    62    1
    16     1     4    1
    17     1    17    1
    18    65    62    1
    19    53    52    1
    20    62    60    1
    21    11     4   ar
    22    11    10   ar
    23    55    52    1
    24    19    17    1
    25    19    20    1
    26    19    21    1
    27     4     5   ar
    28    69    66    1
    29    18    17    1
    30    13    16    1
    31    13    10    1
    32    13    14    1
    33    52    54    1
    34    52    50    1
    35    17    23    1
    36    10     8   ar
    37    68    66    1
    38    60    66    1
    39    60     2    1
    40    60    61    1
    41    66    67    1
    42     5     3    1
    43     5     6   ar
    44     2    50    1
    45     2    37    1
    46    59    56    1
    47     3    38    1
    48     8     6   ar
    49     8     9    1
    50    50    56    1
    51    50    51    1
    52     6     7    1
    53    23    24    1
    54    23    26    1
    55    23    25    1
    56    56    58    1
    57    56    57    1
    58    38    37   ar
    59    38    39   ar
    60    37    44   ar
    61    40    39    1
    62    39    41   ar
    63    44    45    1
    64    44    43   ar
    65    41    43   ar
    66    41    42    1
    67    43    46    1
    68    48    46    1
    69    46    49    1
    70    46    47    1
