@<TRIPOS>MOLECULE
1,2,5
 43 42 0 0 0
SMALL
GASTEIGER

@<TRIPOS>ATOM
      1 P           3.8780    7.2866    0.0209 P.3     1  UNL1        0.0000
      2 P           4.0878    8.6380    5.4881 P.3     1  UNL1        0.0000
      3 SI          2.2181    5.5490    2.0357 Si      1  UNL1        0.0000
      4 SI          1.5348    7.1765    4.4206 Si      1  UNL1        0.0000
      5 N           2.5123    6.9064    3.0368 N.3     1  UNL1        0.0000
      6 C           3.3085    5.6072    0.4394 C.3     1  UNL1        0.0000
      7 C           2.2683    8.5788    5.5188 C.3     1  UNL1        0.0000
      8 C           2.2668    8.0882   -0.3631 C.3     1  UNL1        0.0000
      9 C           4.4883    7.0394   -1.7101 C.3     1  UNL1        0.0000
     10 C           4.4013    9.9699    6.7203 C.3     1  UNL1        0.0000
     11 C           4.4837    7.1601    6.5237 C.3     1  UNL1        0.0000
     12 C           2.6697    3.8673    2.8422 C.3     1  UNL1        0.0000
     13 C           0.4160    5.3530    1.4171 C.3     1  UNL1        0.0000
     14 C          -0.2515    7.7632    4.0355 C.3     1  UNL1        0.0000
     15 C           1.2918    5.6548    5.5629 C.3     1  UNL1        0.0000
     16 H           2.7650    5.1940   -0.4129 H       1  UNL1        0.0000
     17 H           4.1975    4.9940    0.5964 H       1  UNL1        0.0000
     18 H           1.9396    8.4722    6.5552 H       1  UNL1        0.0000
     19 H           1.9193    9.5457    5.1571 H       1  UNL1        0.0000
     20 H           2.4411    9.0708   -0.8011 H       1  UNL1        0.0000
     21 H           1.6944    7.4747   -1.0602 H       1  UNL1        0.0000
     22 H           1.7130    8.2030    0.5676 H       1  UNL1        0.0000
     23 H           5.3940    6.4362   -1.6996 H       1  UNL1        0.0000
     24 H           3.7299    6.5437   -2.3156 H       1  UNL1        0.0000
     25 H           4.7247    8.0083   -2.1467 H       1  UNL1        0.0000
     26 H           5.4674   10.0469    6.9241 H       1  UNL1        0.0000
     27 H           4.0568   10.9149    6.3047 H       1  UNL1        0.0000
     28 H           3.8649    9.7541    7.6450 H       1  UNL1        0.0000
     29 H           3.8717    7.1388    7.4264 H       1  UNL1        0.0000
     30 H           4.2963    6.2620    5.9349 H       1  UNL1        0.0000
     31 H           5.5369    7.1845    6.8028 H       1  UNL1        0.0000
     32 H           1.8874    3.5558    3.5237 H       1  UNL1        0.0000
     33 H           2.7964    3.0777    2.1078 H       1  UNL1        0.0000
     34 H           3.5895    3.9431    3.4138 H       1  UNL1        0.0000
     35 H           0.0084    6.2786    1.0258 H       1  UNL1        0.0000
     36 H           0.3339    4.5979    0.6415 H       1  UNL1        0.0000
     37 H          -0.2166    5.0425    2.2405 H       1  UNL1        0.0000
     38 H          -0.2809    8.5903    3.3343 H       1  UNL1        0.0000
     39 H          -0.8238    6.9516    3.6031 H       1  UNL1        0.0000
     40 H          -0.7648    8.0805    4.9377 H       1  UNL1        0.0000
     41 H           0.9000    5.9351    6.5357 H       1  UNL1        0.0000
     42 H           0.5778    4.9767    5.1089 H       1  UNL1        0.0000
     43 H           2.2090    5.0987    5.7215 H       1  UNL1        0.0000
@<TRIPOS>BOND
     1    24     9    1
     2    25     9    1
     3     9    23    1
     4     9     1    1
     5    21     8    1
     6    20     8    1
     7    16     6    1
     8     8     1    1
     9     8    22    1
    10     1     6    1
    11     6    17    1
    12     6     3    1
    13    36    13    1
    14    35    13    1
    15    13     3    1
    16    13    37    1
    17     3    12    1
    18     3     5    1
    19    33    12    1
    20    12    34    1
    21    12    32    1
    22     5     4    1
    23    38    14    1
    24    39    14    1
    25    14     4    1
    26    14    40    1
    27     4     7    1
    28     4    15    1
    29    42    15    1
    30    19     7    1
    31     2     7    1
    32     2    11    1
    33     2    10    1
    34     7    18    1
    35    15    43    1
    36    15    41    1
    37    30    11    1
    38    27    10    1
    39    11    31    1
    40    11    29    1
    41    10    26    1
    42    10    28    1
