@<TRIPOS>MOLECULE
1,2,5
 71 74 0 0 0
SMALL
GASTEIGER

@<TRIPOS>ATOM
      1 P           3.4260    2.7191    4.6321 P.3     1  UNL1        0.0000
      2 P           2.0368    6.3171    2.1608 P.3     1  UNL1        0.0000
      3 SI          3.0694    1.7178    1.8830 Si      1  UNL1        0.0000
      4 SI          1.9111    3.9990    0.3611 Si      1  UNL1        0.0000
      5 N           2.5579    3.3549    1.8148 N.3     1  UNL1        0.0000
      6 C           4.1792    1.5787    3.4487 C.3     1  UNL1        0.0000
      7 C           0.9769    5.6006    0.8784 C.3     1  UNL1        0.0000
      8 C           1.6592    0.4366    2.0686 C.3     1  UNL1        0.0000
      9 C           4.1253    1.1567    0.3985 C.3     1  UNL1        0.0000
     10 C           3.2324    4.4993   -0.9315 C.3     1  UNL1        0.0000
     11 C           0.6522    2.8783   -0.5265 C.3     1  UNL1        0.0000
     12 C           1.9984    1.7687    5.2453 C.ar    1  UNL1        0.0000
     13 C           0.7222    2.2851    5.0611 C.ar    1  UNL1        0.0000
     14 C          -0.3869    1.5753    5.4850 C.ar    1  UNL1        0.0000
     15 C          -0.2242    0.3442    6.0990 C.ar    1  UNL1        0.0000
     16 C           1.0474   -0.1706    6.2964 C.ar    1  UNL1        0.0000
     17 C           2.1563    0.5397    5.8747 C.ar    1  UNL1        0.0000
     18 C           4.4637    2.6628    6.1344 C.ar    1  UNL1        0.0000
     19 C           3.9494    3.2739    7.2756 C.ar    1  UNL1        0.0000
     20 C           4.6705    3.2754    8.4530 C.ar    1  UNL1        0.0000
     21 C           5.9179    2.6713    8.5026 C.ar    1  UNL1        0.0000
     22 C           6.4398    2.0722    7.3696 C.ar    1  UNL1        0.0000
     23 C           5.7175    2.0691    6.1879 C.ar    1  UNL1        0.0000
     24 C           3.3632    7.1393    1.2274 C.ar    1  UNL1        0.0000
     25 C           4.6615    6.9788    1.6998 C.ar    1  UNL1        0.0000
     26 C           5.7287    7.5433    1.0249 C.ar    1  UNL1        0.0000
     27 C           5.5055    8.2762   -0.1294 C.ar    1  UNL1        0.0000
     28 C           4.2143    8.4460   -0.6029 C.ar    1  UNL1        0.0000
     29 C           3.1465    7.8811    0.0709 C.ar    1  UNL1        0.0000
     30 C           1.0391    7.7037    2.8085 C.ar    1  UNL1        0.0000
     31 C           1.2495    9.0461    2.5253 C.ar    1  UNL1        0.0000
     32 C           0.4110   10.0076    3.0646 C.ar    1  UNL1        0.0000
     33 C          -0.6359    9.6385    3.8912 C.ar    1  UNL1        0.0000
     34 C          -0.8387    8.3006    4.1946 C.ar    1  UNL1        0.0000
     35 C          -0.0014    7.3419    3.6604 C.ar    1  UNL1        0.0000
     36 H           5.1812    1.9413    3.2205 H       1  UNL1        0.0000
     37 H           4.2436    0.5675    3.8480 H       1  UNL1        0.0000
     38 H           0.0220    5.3542    1.3425 H       1  UNL1        0.0000
     39 H           0.7931    6.2955    0.0614 H       1  UNL1        0.0000
     40 H           0.9262    0.7394    2.8094 H       1  UNL1        0.0000
     41 H           1.1407    0.3175    1.1234 H       1  UNL1        0.0000
     42 H           2.0367   -0.5393    2.3606 H       1  UNL1        0.0000
     43 H           4.5319    0.1607    0.5402 H       1  UNL1        0.0000
     44 H           3.5062    1.1346   -0.4909 H       1  UNL1        0.0000
     45 H           4.9513    1.8320    0.2046 H       1  UNL1        0.0000
     46 H           3.6006    3.6183   -1.4461 H       1  UNL1        0.0000
     47 H           2.8346    5.1761   -1.6823 H       1  UNL1        0.0000
     48 H           4.0840    4.9879   -0.4680 H       1  UNL1        0.0000
     49 H          -0.1350    2.5409    0.1385 H       1  UNL1        0.0000
     50 H           0.1877    3.3760   -1.3712 H       1  UNL1        0.0000
     51 H           1.1617    1.9989   -0.9028 H       1  UNL1        0.0000
     52 H           0.6222    3.2525    4.5777 H       1  UNL1        0.0000
     53 H          -1.3786    1.9780    5.3374 H       1  UNL1        0.0000
     54 H          -1.0882   -0.2145    6.4283 H       1  UNL1        0.0000
     55 H           1.1720   -1.1281    6.7815 H       1  UNL1        0.0000
     56 H           3.1498    0.1444    6.0387 H       1  UNL1        0.0000
     57 H           2.9798    3.7489    7.2154 H       1  UNL1        0.0000
     58 H           4.2649    3.7479    9.3358 H       1  UNL1        0.0000
     59 H           6.4834    2.6705    9.4230 H       1  UNL1        0.0000
     60 H           7.4134    1.6041    7.4056 H       1  UNL1        0.0000
     61 H           6.1340    1.6002    5.3080 H       1  UNL1        0.0000
     62 H           4.8120    6.3968    2.6037 H       1  UNL1        0.0000
     63 H           6.7351    7.4108    1.3947 H       1  UNL1        0.0000
     64 H           6.3365    8.7150   -0.6623 H       1  UNL1        0.0000
     65 H           4.0411    9.0189   -1.5027 H       1  UNL1        0.0000
     66 H           2.1426    8.0180   -0.3066 H       1  UNL1        0.0000
     67 H           2.0721    9.3444    1.8914 H       1  UNL1        0.0000
     68 H           0.5782   11.0512    2.8396 H       1  UNL1        0.0000
     69 H          -1.2879   10.3926    4.3071 H       1  UNL1        0.0000
     70 H          -1.6462    8.0124    4.8520 H       1  UNL1        0.0000
     71 H          -0.1255    6.2942    3.9069 H       1  UNL1        0.0000
@<TRIPOS>BOND
     1    47    10    1
     2    65    28    1
     3    46    10    1
     4    50    11    1
     5    10    48    1
     6    10     4    1
     7    51    11    1
     8    64    27    1
     9    28    27   ar
    10    28    29   ar
    11    11    49    1
    12    11     4    1
    13    44     9    1
    14    66    29    1
    15    27    26   ar
    16    39     7    1
    17    29    24   ar
    18    45     9    1
    19     4     7    1
    20     4     5    1
    21     9    43    1
    22     9     3    1
    23     7    38    1
    24     7     2    1
    25    26    63    1
    26    26    25   ar
    27    41     8    1
    28    24    25   ar
    29    24     2    1
    30    25    62    1
    31     5     3    1
    32     3     8    1
    33     3     6    1
    34    67    31    1
    35     8    42    1
    36     8    40    1
    37     2    30    1
    38    31    30   ar
    39    31    32   ar
    40    30    35   ar
    41    68    32    1
    42    32    33   ar
    43    36     6    1
    44     6    37    1
    45     6     1    1
    46    35    71    1
    47    35    34   ar
    48    33    34   ar
    49    33    69    1
    50    34    70    1
    51    52    13    1
    52     1    12    1
    53     1    18    1
    54    13    12   ar
    55    13    14   ar
    56    12    17   ar
    57    61    23    1
    58    53    14    1
    59    14    15   ar
    60    17    56    1
    61    17    16   ar
    62    15    16   ar
    63    15    54    1
    64    18    23   ar
    65    18    19   ar
    66    23    22   ar
    67    16    55    1
    68    57    19    1
    69    19    20   ar
    70    22    60    1
    71    22    21   ar
    72    20    21   ar
    73    20    58    1
    74    21    59    1
