@<TRIPOS>MOLECULE
1,2,5
 71 74 0 0 0
SMALL
GASTEIGER

@<TRIPOS>ATOM
      1 P           4.5124    4.6779   16.4726 P.3     1  UNL1        0.0000
      2 P           4.1368    1.8927   12.8047 P.3     1  UNL1        0.0000
      3 SI          1.5857    3.9758   15.9299 Si      1  UNL1        0.0000
      4 SI          2.0795    1.1879   14.8408 Si      1  UNL1        0.0000
      5 N           2.5877    2.8021   15.1577 N.3     1  UNL1        0.0000
      6 C           2.8007    5.2355   16.7343 C.3     1  UNL1        0.0000
      7 C           3.2949    0.4626   13.5367 C.3     1  UNL1        0.0000
      8 C           0.4796    3.2648   17.3128 C.3     1  UNL1        0.0000
      9 C           0.4128    4.9570   14.7787 C.3     1  UNL1        0.0000
     10 C           2.1955    0.0403   16.3688 C.3     1  UNL1        0.0000
     11 C           0.3157    1.0408   14.1304 C.3     1  UNL1        0.0000
     12 C           4.8886    3.7349   17.9847 C.ar    1  UNL1        0.0000
     13 C           4.0552    2.6689   18.3097 C.ar    1  UNL1        0.0000
     14 C           4.3274    1.8776   19.4097 C.ar    1  UNL1        0.0000
     15 C           5.4450    2.1325   20.1890 C.ar    1  UNL1        0.0000
     16 C           6.2934    3.1750   19.8553 C.ar    1  UNL1        0.0000
     17 C           6.0234    3.9697   18.7551 C.ar    1  UNL1        0.0000
     18 C           5.4658    6.2090   16.7630 C.ar    1  UNL1        0.0000
     19 C           6.4215    6.6628   15.8653 C.ar    1  UNL1        0.0000
     20 C           7.1136    7.8356   16.1150 C.ar    1  UNL1        0.0000
     21 C           6.8582    8.5605   17.2652 C.ar    1  UNL1        0.0000
     22 C           5.9057    8.1122   18.1677 C.ar    1  UNL1        0.0000
     23 C           5.2118    6.9444   17.9190 C.ar    1  UNL1        0.0000
     24 C           2.9106    2.3315   11.5257 C.ar    1  UNL1        0.0000
     25 C           1.8427    3.1506   11.8720 C.ar    1  UNL1        0.0000
     26 C           0.8578    3.4439   10.9471 C.ar    1  UNL1        0.0000
     27 C           0.9244    2.9134    9.6698 C.ar    1  UNL1        0.0000
     28 C           1.9754    2.0803    9.3254 C.ar    1  UNL1        0.0000
     29 C           2.9652    1.7872   10.2464 C.ar    1  UNL1        0.0000
     30 C           5.4851    1.2492   11.7596 C.ar    1  UNL1        0.0000
     31 C           5.9654   -0.0519   11.8149 C.ar    1  UNL1        0.0000
     32 C           7.0273   -0.4344   11.0116 C.ar    1  UNL1        0.0000
     33 C           7.6179    0.4786   10.1553 C.ar    1  UNL1        0.0000
     34 C           7.1480    1.7829   10.1000 C.ar    1  UNL1        0.0000
     35 C           6.0918    2.1680   10.9013 C.ar    1  UNL1        0.0000
     36 H           2.6198    5.3701   17.8007 H       1  UNL1        0.0000
     37 H           2.7089    6.2035   16.2411 H       1  UNL1        0.0000
     38 H           2.7952   -0.1105   12.7559 H       1  UNL1        0.0000
     39 H           4.0196   -0.1775   14.0346 H       1  UNL1        0.0000
     40 H          -0.1953    4.0312   17.6777 H       1  UNL1        0.0000
     41 H          -0.1265    2.4574   16.9204 H       1  UNL1        0.0000
     42 H           1.0297    2.8805   18.1644 H       1  UNL1        0.0000
     43 H          -0.1979    5.6445   15.3571 H       1  UNL1        0.0000
     44 H           0.9389    5.5410   14.0299 H       1  UNL1        0.0000
     45 H          -0.2614    4.2814   14.2616 H       1  UNL1        0.0000
     46 H           1.5084    0.3700   17.1397 H       1  UNL1        0.0000
     47 H           1.9273   -0.9792   16.1089 H       1  UNL1        0.0000
     48 H           3.1915    0.0188   16.8008 H       1  UNL1        0.0000
     49 H          -0.3867    1.5842   14.7513 H       1  UNL1        0.0000
     50 H           0.2389    1.4341   13.1222 H       1  UNL1        0.0000
     51 H          -0.0012    0.0032   14.1093 H       1  UNL1        0.0000
     52 H           3.2056    2.4594   17.6780 H       1  UNL1        0.0000
     53 H           3.6712    1.0552   19.6566 H       1  UNL1        0.0000
     54 H           5.6594    1.5153   21.0491 H       1  UNL1        0.0000
     55 H           7.1729    3.3694   20.4522 H       1  UNL1        0.0000
     56 H           6.6952    4.7790   18.5009 H       1  UNL1        0.0000
     57 H           6.6123    6.1101   14.9590 H       1  UNL1        0.0000
     58 H           7.8495    8.1841   15.4059 H       1  UNL1        0.0000
     59 H           7.3967    9.4760   17.4604 H       1  UNL1        0.0000
     60 H           5.7034    8.6764   19.0666 H       1  UNL1        0.0000
     61 H           4.4740    6.5933   18.6276 H       1  UNL1        0.0000
     62 H           1.7874    3.5521   12.8704 H       1  UNL1        0.0000
     63 H           0.0401    4.0920   11.2244 H       1  UNL1        0.0000
     64 H           0.1593    3.1453    8.9437 H       1  UNL1        0.0000
     65 H           2.0284    1.6558    8.3331 H       1  UNL1        0.0000
     66 H           3.7787    1.1342    9.9625 H       1  UNL1        0.0000
     67 H           5.5068   -0.7752   12.4747 H       1  UNL1        0.0000
     68 H           7.3929   -1.4503   11.0553 H       1  UNL1        0.0000
     69 H           8.4451    0.1750    9.5309 H       1  UNL1        0.0000
     70 H           7.6083    2.4973    9.4338 H       1  UNL1        0.0000
     71 H           5.7163    3.1835   10.8715 H       1  UNL1        0.0000
@<TRIPOS>BOND
     1    65    28    1
     2    64    27    1
     3    28    27   ar
     4    28    29   ar
     5    70    34    1
     6    69    33    1
     7    27    26   ar
     8    66    29    1
     9    34    33   ar
    10    34    35   ar
    11    33    32   ar
    12    29    24   ar
    13    71    35    1
    14    35    30   ar
    15    26    63    1
    16    26    25   ar
    17    32    68    1
    18    32    31   ar
    19    24    25   ar
    20    24     2    1
    21    30    31   ar
    22    30     2    1
    23    31    67    1
    24    25    62    1
    25    38     7    1
    26     2     7    1
    27    50    11    1
    28     7    39    1
    29     7     4    1
    30    44     9    1
    31    51    11    1
    32    11    49    1
    33    11     4    1
    34    45     9    1
    35     9    43    1
    36     9     3    1
    37     4     5    1
    38     4    10    1
    39    57    19    1
    40     5     3    1
    41    58    20    1
    42    19    20   ar
    43    19    18   ar
    44     3     6    1
    45     3     8    1
    46    47    10    1
    47    20    21   ar
    48    37     6    1
    49    10    48    1
    50    10    46    1
    51     1     6    1
    52     1    18    1
    53     1    12    1
    54     6    36    1
    55    18    23   ar
    56    41     8    1
    57    21    59    1
    58    21    22   ar
    59     8    40    1
    60     8    42    1
    61    52    13    1
    62    23    22   ar
    63    23    61    1
    64    12    13   ar
    65    12    17   ar
    66    22    60    1
    67    13    14   ar
    68    56    17    1
    69    17    16   ar
    70    14    53    1
    71    14    15   ar
    72    16    15   ar
    73    16    55    1
    74    15    54    1
