@<TRIPOS>MOLECULE
1,2,4
 61 61 0 0 0
SMALL
GASTEIGER

@<TRIPOS>ATOM
      1 P           1.9462   10.5727    3.3969 P.3     1  UNL1       -0.0249
      2 N           2.4652   11.2525    6.0165 N.pl3   1  UNL1       -0.0193
      3 C           2.1853    9.9304    5.9391 C.3     1  UNL1        0.2833
      4 P           2.9296   13.9604    5.7308 P.3     1  UNL1        0.0872
      5 N           1.8621    9.4374    4.6902 N.3     1  UNL1       -0.2323
      6 C           2.1960    9.1140    7.0670 C.2     1  UNL1       -0.0126
      7 H           1.9489    8.0694    7.0010 H       1  UNL1        0.0633
      8 N           3.1161   13.1232    7.2279 N.pl3   1  UNL1       -0.2064
      9 C           2.5348    9.6640    8.2899 C.2     1  UNL1       -0.0525
     10 H           2.5524    9.0475    9.1752 H       1  UNL1        0.0619
     11 C           2.8536   11.0064    8.3709 C.2     1  UNL1        0.0267
     12 H           3.1288   11.4366    9.3173 H       1  UNL1        0.0696
     13 C           2.8175   11.7800    7.2126 C.2     1  UNL1        0.3027
     14 C           0.1838   10.6549    2.7489 C.3     1  UNL1       -0.0126
     15 H           0.2807   11.2226    1.8153 H       1  UNL1        0.0355
     16 C          -0.5527   11.5299    3.7620 C.3     1  UNL1       -0.0576
     17 H          -1.5795   11.7211    3.4529 H       1  UNL1        0.0236
     18 H          -0.0311   12.4907    3.8400 H       1  UNL1        0.0236
     19 H          -0.5728   11.0487    4.7418 H       1  UNL1        0.0236
     20 C          -0.5824    9.3657    2.4763 C.3     1  UNL1       -0.0576
     21 H          -1.5413    9.6066    2.0175 H       1  UNL1        0.0236
     22 H          -0.7817    8.8272    3.3997 H       1  UNL1        0.0236
     23 H          -0.0469    8.7110    1.7923 H       1  UNL1        0.0236
     24 C           2.8411    9.6938    2.0254 C.3     1  UNL1       -0.0126
     25 H           2.1755    8.9584    1.5532 H       1  UNL1        0.0355
     26 C           4.1066    9.0123    2.5341 C.3     1  UNL1       -0.0576
     27 H           4.7057    8.6725    1.6909 H       1  UNL1        0.0236
     28 H           3.8855    8.1514    3.1596 H       1  UNL1        0.0236
     29 H           4.6915    9.7275    3.1084 H       1  UNL1        0.0236
     30 C           3.1951   10.7804    1.0127 C.3     1  UNL1       -0.0576
     31 H           3.7188   10.3509    0.1604 H       1  UNL1        0.0236
     32 H           3.8343   11.5188    1.4921 H       1  UNL1        0.0236
     33 H           2.3060   11.2935    0.6528 H       1  UNL1        0.0236
     34 C           1.5652   15.1610    6.2152 C.3     1  UNL1        0.0115
     35 H           1.8501   15.7177    7.1174 H       1  UNL1        0.0378
     36 C           0.3277   14.3176    6.5074 C.3     1  UNL1       -0.0554
     37 H          -0.5141   14.9461    6.7958 H       1  UNL1        0.0237
     38 H           0.5118   13.6050    7.3111 H       1  UNL1        0.0237
     39 H           0.0480   13.7626    5.6110 H       1  UNL1        0.0237
     40 C           1.2852   16.1371    5.0786 C.3     1  UNL1       -0.0554
     41 H           1.1780   15.5959    4.1384 H       1  UNL1        0.0237
     42 H           2.0916   16.8587    4.9735 H       1  UNL1        0.0237
     43 H           0.3648   16.6875    5.2729 H       1  UNL1        0.0237
     44 C           4.4154   15.0846    5.6510 C.3     1  UNL1        0.0115
     45 H           4.2023   15.9999    6.2226 H       1  UNL1        0.0378
     46 C           5.6750   14.4103    6.1872 C.3     1  UNL1       -0.0554
     47 H           5.7756   13.4264    5.7348 H       1  UNL1        0.0237
     48 H           5.6618   14.3058    7.2685 H       1  UNL1        0.0237
     49 H           6.5476   15.0038    5.9185 H       1  UNL1        0.0237
     50 C           4.6086   15.4356    4.1766 C.3     1  UNL1       -0.0554
     51 H           4.8618   14.5313    3.6294 H       1  UNL1        0.0237
     52 H           5.4104   16.1627    4.0601 H       1  UNL1        0.0237
     53 H           3.7007   15.8387    3.7370 H       1  UNL1        0.0237
     54 C           1.6083    8.0214    4.5284 C.3     1  UNL1       -0.0043
     55 H           1.4730    7.8115    3.4710 H       1  UNL1        0.0395
     56 H           0.7023    7.7177    5.0632 H       1  UNL1        0.0395
     57 H           2.4443    7.4212    4.8994 H       1  UNL1        0.0395
     58 C           3.3853   13.7864    8.4852 C.3     1  UNL1        0.0719
     59 H           3.5843   14.8372    8.2868 H       1  UNL1        0.0690
     60 H           4.2592   13.3560    8.9815 H       1  UNL1        0.0690
     61 H           2.5298   13.7183    9.1661 H       1  UNL1        0.0690
@<TRIPOS>BOND
     1    31    30    1
     2    33    30    1
     3    30    32    1
     4    30    24    1
     5    25    24    1
     6    27    26    1
     7    23    20    1
     8    15    14    1
     9    21    20    1
    10    24    26    1
    11    24     1    1
    12    20    14    1
    13    20    22    1
    14    26    29    1
    15    26    28    1
    16    14     1    1
    17    14    16    1
    18     1     5    1
    19    17    16    1
    20    55    54    1
    21    51    50    1
    22    53    50    1
    23    16    18    1
    24    16    19    1
    25    52    50    1
    26    41    40    1
    27    50    44    1
    28    54     5    1
    29    54    57    1
    30    54    56    1
    31     5     3    1
    32    42    40    1
    33    40    43    1
    34    40    34    1
    35    39    36    1
    36    44     4    1
    37    44    46    1
    38    44    45    1
    39     4    34    1
    40     4     8    1
    41    47    46    1
    42    49    46    1
    43     3     2    1
    44     3     6    1
    45     2    13    1
    46    46    48    1
    47    34    36    1
    48    34    35    1
    49    36    37    1
    50    36    38    1
    51     7     6    1
    52     6     9    2
    53    13     8    1
    54    13    11    2
    55     8    58    1
    56    59    58    1
    57     9    11    1
    58     9    10    1
    59    11    12    1
    60    58    60    1
    61    58    61    1
