@<TRIPOS>MOLECULE
1,2,6
 79 78 0 0 0
SMALL
GASTEIGER

@<TRIPOS>ATOM
      1 P           7.0196    3.1607   -1.9576 P.3     1  UNL1        0.0000
      2 P           7.2367    4.2823    2.6356 P.3     1  UNL1        0.0000
      3 C           8.6456    3.5467   -2.6757 C.3     1  UNL1        0.0000
      4 H           8.5789    4.5536   -3.0813 H       1  UNL1        0.0000
      5 H           8.8798    2.8797   -3.5010 H       1  UNL1        0.0000
      6 N           9.2230    3.7750    0.1907 N.3     1  UNL1        0.0000
      7 SI         10.0129    3.5940   -1.3209 Si      1  UNL1        0.0000
      8 C          11.1371    5.0410   -1.8850 C.3     1  UNL1        0.0000
      9 H          10.7106    6.0196   -1.6909 H       1  UNL1        0.0000
     10 H          11.3457    4.9779   -2.9493 H       1  UNL1        0.0000
     11 H          12.0882    4.9955   -1.3685 H       1  UNL1        0.0000
     12 C          11.1692    2.0733   -1.4835 C.3     1  UNL1        0.0000
     13 H          12.0677    2.2675   -0.9075 H       1  UNL1        0.0000
     14 H          11.4741    1.9225   -2.5147 H       1  UNL1        0.0000
     15 H          10.7525    1.1395   -1.1207 H       1  UNL1        0.0000
     16 SI         10.1455    3.9591    1.6246 Si      1  UNL1        0.0000
     17 C          11.5960    5.1998    1.5253 C.3     1  UNL1        0.0000
     18 H          12.4184    4.7595    0.9738 H       1  UNL1        0.0000
     19 H          11.9676    5.4515    2.5138 H       1  UNL1        0.0000
     20 H          11.3275    6.1250    1.0272 H       1  UNL1        0.0000
     21 C          10.9850    2.3739    2.3094 C.3     1  UNL1        0.0000
     22 H          10.3395    1.5051    2.3810 H       1  UNL1        0.0000
     23 H          11.4096    2.5541    3.2929 H       1  UNL1        0.0000
     24 H          11.8048    2.1093    1.6500 H       1  UNL1        0.0000
     25 C           8.9708    4.7503    2.9265 C.3     1  UNL1        0.0000
     26 H           9.2730    4.5681    3.9537 H       1  UNL1        0.0000
     27 H           9.0252    5.8241    2.7556 H       1  UNL1        0.0000
     28 C           6.9548    1.2602   -2.0459 C.3     1  UNL1        0.0000
     29 C           7.6452    0.8368   -0.7484 C.3     1  UNL1        0.0000
     30 H           7.6935   -0.2498   -0.6704 H       1  UNL1        0.0000
     31 H           7.0631    1.2204    0.0936 H       1  UNL1        0.0000
     32 H           8.6557    1.2352   -0.6902 H       1  UNL1        0.0000
     33 C           7.6870    0.6131   -3.2210 C.3     1  UNL1        0.0000
     34 H           7.5090   -0.4623   -3.1951 H       1  UNL1        0.0000
     35 H           8.7602    0.7695   -3.1455 H       1  UNL1        0.0000
     36 H           7.3426    0.9825   -4.1819 H       1  UNL1        0.0000
     37 C           5.5157    0.7444   -1.9768 C.3     1  UNL1        0.0000
     38 H           5.5224   -0.3217   -1.7472 H       1  UNL1        0.0000
     39 H           4.9874    0.8731   -2.9172 H       1  UNL1        0.0000
     40 H           4.9661    1.2546   -1.1867 H       1  UNL1        0.0000
     41 C           5.7933    3.8857   -3.2283 C.3     1  UNL1        0.0000
     42 C           4.3886    3.8647   -2.6246 C.3     1  UNL1        0.0000
     43 H           3.6893    4.3522   -3.3031 H       1  UNL1        0.0000
     44 H           4.3859    4.4134   -1.6832 H       1  UNL1        0.0000
     45 H           4.0292    2.8578   -2.4431 H       1  UNL1        0.0000
     46 C           5.8231    3.1620   -4.5736 C.3     1  UNL1        0.0000
     47 H           5.1969    3.7016   -5.2841 H       1  UNL1        0.0000
     48 H           5.4391    2.1489   -4.5021 H       1  UNL1        0.0000
     49 H           6.8339    3.1338   -4.9767 H       1  UNL1        0.0000
     50 C           6.1438    5.3567   -3.4785 C.3     1  UNL1        0.0000
     51 H           5.3494    5.8138   -4.0675 H       1  UNL1        0.0000
     52 H           7.0691    5.4723   -4.0385 H       1  UNL1        0.0000
     53 H           6.2127    5.9023   -2.5426 H       1  UNL1        0.0000
     54 C           7.0286    2.6868    3.6641 C.3     1  UNL1        0.0000
     55 C           5.5861    2.4428    4.1136 C.3     1  UNL1        0.0000
     56 H           5.4913    1.4115    4.4558 H       1  UNL1        0.0000
     57 H           4.8967    2.5842    3.2837 H       1  UNL1        0.0000
     58 H           5.2914    3.0874    4.9363 H       1  UNL1        0.0000
     59 C           7.9675    2.5841    4.8669 C.3     1  UNL1        0.0000
     60 H           7.7141    1.6897    5.4365 H       1  UNL1        0.0000
     61 H           7.8781    3.4367    5.5338 H       1  UNL1        0.0000
     62 H           9.0016    2.4908    4.5457 H       1  UNL1        0.0000
     63 C           7.3733    1.5680    2.6747 C.3     1  UNL1        0.0000
     64 H           7.6089    0.6438    3.2025 H       1  UNL1        0.0000
     65 H           8.2308    1.8421    2.0577 H       1  UNL1        0.0000
     66 H           6.5066    1.3774    2.0383 H       1  UNL1        0.0000
     67 C           6.2658    5.6840    3.4950 C.3     1  UNL1        0.0000
     68 C           6.4871    5.7290    5.0066 C.3     1  UNL1        0.0000
     69 H           5.9926    6.6110    5.4133 H       1  UNL1        0.0000
     70 H           7.5475    5.8055    5.2408 H       1  UNL1        0.0000
     71 H           6.0751    4.8609    5.5111 H       1  UNL1        0.0000
     72 C           6.7221    7.0292    2.9195 C.3     1  UNL1        0.0000
     73 H           6.0691    7.8155    3.2969 H       1  UNL1        0.0000
     74 H           6.6463    7.0294    1.8375 H       1  UNL1        0.0000
     75 H           7.7379    7.2835    3.2132 H       1  UNL1        0.0000
     76 C           4.7812    5.5415    3.1557 C.3     1  UNL1        0.0000
     77 H           4.2365    6.4144    3.5139 H       1  UNL1        0.0000
     78 H           4.3337    4.6639    3.6080 H       1  UNL1        0.0000
     79 H           4.6545    5.4837    2.0748 H       1  UNL1        0.0000
@<TRIPOS>BOND
     1    47    46    1
     2    49    46    1
     3    46    48    1
     4    46    41    1
     5    36    33    1
     6    51    50    1
     7    52    50    1
     8     5     3    1
     9    50    41    1
    10    50    53    1
    11    43    42    1
    12    41    42    1
    13    41     1    1
    14    33    34    1
    15    33    35    1
    16    33    28    1
    17     4     3    1
    18    10     8    1
    19    39    37    1
    20     3     1    1
    21     3     7    1
    22    42    45    1
    23    42    44    1
    24    14    12    1
    25    28    37    1
    26    28     1    1
    27    28    29    1
    28    37    38    1
    29    37    40    1
    30     8     9    1
    31     8    11    1
    32     8     7    1
    33    12     7    1
    34    12    15    1
    35    12    13    1
    36     7     6    1
    37    29    32    1
    38    29    30    1
    39    29    31    1
    40     6    16    1
    41    18    17    1
    42    20    17    1
    43    17    16    1
    44    17    19    1
    45    16    21    1
    46    16    25    1
    47    24    21    1
    48    74    72    1
    49    66    63    1
    50    65    63    1
    51    79    76    1
    52    21    22    1
    53    21    23    1
    54     2    25    1
    55     2    67    1
    56     2    54    1
    57    63    64    1
    58    63    54    1
    59    27    25    1
    60    72    75    1
    61    72    73    1
    62    72    67    1
    63    25    26    1
    64    76    67    1
    65    76    77    1
    66    76    78    1
    67    57    55    1
    68    67    68    1
    69    54    55    1
    70    54    59    1
    71    55    56    1
    72    55    58    1
    73    62    59    1
    74    59    60    1
    75    59    61    1
    76    68    70    1
    77    68    69    1
    78    68    71    1
