@<TRIPOS>MOLECULE
1,2,3
 69 70 0 0 0
SMALL
GASTEIGER

@<TRIPOS>ATOM
      1 N           5.4974    1.8216    3.0180 N.pl3   1  UNL1       -0.2137
      2 P           4.8516    1.9007    5.7999 P.3     1  UNL1       -0.0674
      3 P           7.8378    3.3036    2.2340 P.3     1  UNL1       -0.0674
      4 C           3.1746    2.7656    5.9328 C.3     1  UNL1       -0.0219
      5 H           3.3818    3.7379    6.4016 H       1  UNL1        0.0346
      6 C           2.6270    3.0085    4.5275 C.3     1  UNL1       -0.0584
      7 H           1.7450    3.6460    4.5741 H       1  UNL1        0.0236
      8 H           2.3410    2.0626    4.0682 H       1  UNL1        0.0236
      9 H           3.3597    3.4949    3.8861 H       1  UNL1        0.0236
     10 C           2.1381    2.0168    6.7654 C.3     1  UNL1       -0.0584
     11 H           1.1830    2.5370    6.7013 H       1  UNL1        0.0236
     12 H           2.4163    1.9638    7.8149 H       1  UNL1        0.0236
     13 H           1.9967    1.0087    6.3806 H       1  UNL1        0.0236
     14 C           5.1015    1.1975    7.5072 C.3     1  UNL1       -0.0219
     15 H           4.2091    0.6575    7.8408 H       1  UNL1        0.0346
     16 C           6.2917    0.2496    7.4605 C.3     1  UNL1       -0.0584
     17 H           6.5514   -0.0877    8.4629 H       1  UNL1        0.0236
     18 H           7.1536    0.7603    7.0175 H       1  UNL1        0.0236
     19 H           6.0704   -0.6211    6.8463 H       1  UNL1        0.0236
     20 C           5.3892    2.3669    8.4480 C.3     1  UNL1       -0.0584
     21 H           5.6025    2.0050    9.4527 H       1  UNL1        0.0236
     22 H           4.5448    3.0522    8.5063 H       1  UNL1        0.0236
     23 H           6.2597    2.9211    8.0898 H       1  UNL1        0.0236
     24 C           4.4424    0.4917    4.7244 C.ar    1  UNL1        0.0002
     25 C           3.7992   -0.6732    5.1205 C.ar    1  UNL1       -0.0494
     26 H           3.5562   -0.8230    6.1645 H       1  UNL1        0.0627
     27 C           3.4633   -1.6576    4.2027 C.ar    1  UNL1       -0.0497
     28 C           2.7858   -2.9242    4.6333 C.3     1  UNL1       -0.0397
     29 H           2.3918   -2.8326    5.6429 H       1  UNL1        0.0278
     30 H           3.4947   -3.7526    4.6173 H       1  UNL1        0.0278
     31 H           1.9681   -3.1729    3.9588 H       1  UNL1        0.0278
     32 C           3.7890   -1.4496    2.8642 C.ar    1  UNL1       -0.0570
     33 H           3.5348   -2.2084    2.1373 H       1  UNL1        0.0621
     34 C           4.4403   -0.3087    2.4497 C.ar    1  UNL1       -0.0378
     35 H           4.7064   -0.1858    1.4084 H       1  UNL1        0.0637
     36 C           4.7960    0.6929    3.3670 C.ar    1  UNL1        0.0613
     37 C           5.2568    2.5063    1.8625 C.ar    1  UNL1        0.0613
     38 C           4.0251    2.4737    1.1825 C.ar    1  UNL1       -0.0378
     39 H           3.2328    1.8421    1.5601 H       1  UNL1        0.0637
     40 C           3.8044    3.2490    0.0667 C.ar    1  UNL1       -0.0570
     41 H           2.8429    3.2031   -0.4260 H       1  UNL1        0.0621
     42 C           4.7845    4.1018   -0.4356 C.ar    1  UNL1       -0.0497
     43 C           4.5129    4.9517   -1.6412 C.3     1  UNL1       -0.0397
     44 H           5.4298    5.4021   -2.0146 H       1  UNL1        0.0278
     45 H           3.8156    5.7522   -1.3918 H       1  UNL1        0.0278
     46 H           4.0658    4.3581   -2.4372 H       1  UNL1        0.0278
     47 C           6.0055    4.1479    0.2200 C.ar    1  UNL1       -0.0494
     48 H           6.7753    4.8103   -0.1529 H       1  UNL1        0.0627
     49 C           6.2577    3.3661    1.3391 C.ar    1  UNL1        0.0002
     50 C           8.6900    4.9344    1.9161 C.3     1  UNL1       -0.0219
     51 H           8.8247    5.0805    0.8394 H       1  UNL1        0.0346
     52 C           7.8581    6.0823    2.4798 C.3     1  UNL1       -0.0584
     53 H           8.2873    7.0402    2.1877 H       1  UNL1        0.0236
     54 H           7.8475    6.0357    3.5689 H       1  UNL1        0.0236
     55 H           6.8316    6.0412    2.1166 H       1  UNL1        0.0236
     56 C          10.0481    4.8673    2.6121 C.3     1  UNL1       -0.0584
     57 H          10.5580    5.8279    2.5522 H       1  UNL1        0.0236
     58 H          10.6869    4.1108    2.1602 H       1  UNL1        0.0236
     59 H           9.9074    4.6121    3.6660 H       1  UNL1        0.0236
     60 C           8.8017    2.0907    1.1729 C.3     1  UNL1       -0.0219
     61 H           9.6998    1.8421    1.7526 H       1  UNL1        0.0346
     62 C           7.9467    0.8333    1.0409 C.3     1  UNL1       -0.0584
     63 H           8.5266    0.0192    0.6087 H       1  UNL1        0.0236
     64 H           7.0937    1.0236    0.3892 H       1  UNL1        0.0236
     65 H           7.5865    0.5258    2.0260 H       1  UNL1        0.0236
     66 C           9.1945    2.6123   -0.2062 C.3     1  UNL1       -0.0584
     67 H           9.6346    1.8018   -0.7857 H       1  UNL1        0.0236
     68 H           9.9279    3.4129   -0.1478 H       1  UNL1        0.0236
     69 H           8.3173    2.9696   -0.7431 H       1  UNL1        0.0236
@<TRIPOS>BOND
     1    46    43    1
     2    44    43    1
     3    43    45    1
     4    43    42    1
     5    67    66    1
     6    69    66    1
     7    42    40   ar
     8    42    47   ar
     9    41    40    1
    10    66    68    1
    11    66    60    1
    12    48    47    1
    13    40    38   ar
    14    47    49   ar
    15    64    62    1
    16    63    62    1
    17    51    50    1
    18    62    60    1
    19    62    65    1
    20    60    61    1
    21    60     3    1
    22    38    39    1
    23    38    37   ar
    24    49    37   ar
    25    49     3    1
    26    35    34    1
    27    37     1    1
    28    50     3    1
    29    50    52    1
    30    50    56    1
    31    55    52    1
    32    33    32    1
    33    58    56    1
    34    53    52    1
    35    34    32   ar
    36    34    36   ar
    37    52    54    1
    38    57    56    1
    39    56    59    1
    40    32    27   ar
    41     1    36    1
    42    36    24   ar
    43     9     6    1
    44    31    28    1
    45     8     6    1
    46    27    28    1
    47    27    25   ar
    48     6     7    1
    49     6     4    1
    50    30    28    1
    51    28    29    1
    52    24    25   ar
    53    24     2    1
    54    25    26    1
    55     2     4    1
    56     2    14    1
    57     4     5    1
    58     4    10    1
    59    13    10    1
    60    11    10    1
    61    10    12    1
    62    19    16    1
    63    18    16    1
    64    16    14    1
    65    16    17    1
    66    14    15    1
    67    14    20    1
    68    23    20    1
    69    20    22    1
    70    20    21    1
