@<TRIPOS>MOLECULE
1,2,3
 57 57 0 0 0
SMALL
GASTEIGER

@<TRIPOS>ATOM
      1 P           2.0619    9.3946    1.1231 P.3     1  UNL1       -0.0981
      2 P           2.4828   12.1834    4.3114 P.3     1  UNL1       -0.0949
      3 N           2.9705   11.9960    1.5884 N.pl3   1  UNL1       -0.2410
      4 C           1.8819   10.7274   -0.1557 C.3     1  UNL1       -0.0027
      5 H           0.8354   11.0448   -0.0829 H       1  UNL1        0.0339
      6 H           2.0923   10.4116   -1.1812 H       1  UNL1        0.0339
      7 C           2.7352   11.8767    0.2704 C.3     1  UNL1        0.1022
      8 C           3.2179   12.7972   -0.6460 C.2     1  UNL1       -0.0563
      9 H           3.0139   12.6608   -1.6971 H       1  UNL1        0.0595
     10 C           3.9473   13.8877   -0.2022 C.2     1  UNL1       -0.0620
     11 H           4.3386   14.6137   -0.8975 H       1  UNL1        0.0616
     12 C           4.1448   14.0295    1.1618 C.2     1  UNL1       -0.0431
     13 H           4.6879   14.8750    1.5558 H       1  UNL1        0.0633
     14 C           3.6422   13.0735    2.0290 C.2     1  UNL1        0.0306
     15 C           3.8193   13.1974    3.5084 C.3     1  UNL1        0.0080
     16 H           3.8533   14.2429    3.8264 H       1  UNL1        0.0374
     17 H           4.7592   12.7101    3.7979 H       1  UNL1        0.0374
     18 C           0.5682    8.3177    0.8103 C.3     1  UNL1       -0.0258
     19 H           0.6249    7.5691    1.6114 H       1  UNL1        0.0343
     20 C           0.5329    7.6032   -0.5404 C.3     1  UNL1       -0.0587
     21 H           1.2944    6.8309   -0.6121 H       1  UNL1        0.0236
     22 H           0.6595    8.3056   -1.3628 H       1  UNL1        0.0236
     23 H          -0.4368    7.1212   -0.6596 H       1  UNL1        0.0236
     24 C          -0.7101    9.1289    1.0105 C.3     1  UNL1       -0.0587
     25 H          -0.5943    9.8142    1.8464 H       1  UNL1        0.0236
     26 H          -0.9528    9.7008    0.1158 H       1  UNL1        0.0236
     27 H          -1.5475    8.4670    1.2226 H       1  UNL1        0.0236
     28 C           3.4387    8.3933    0.3609 C.3     1  UNL1       -0.0258
     29 H           3.0970    8.0442   -0.6210 H       1  UNL1        0.0343
     30 C           4.6817    9.2535    0.1562 C.3     1  UNL1       -0.0587
     31 H           4.9874    9.7200    1.0888 H       1  UNL1        0.0236
     32 H           4.5102   10.0403   -0.5771 H       1  UNL1        0.0236
     33 H           5.5064    8.6352   -0.1966 H       1  UNL1        0.0236
     34 C           3.7414    7.2004    1.2600 C.3     1  UNL1       -0.0587
     35 H           4.0838    7.5412    2.2347 H       1  UNL1        0.0236
     36 H           2.8560    6.5868    1.4189 H       1  UNL1        0.0236
     37 H           4.5193    6.5758    0.8223 H       1  UNL1        0.0236
     38 C           1.0730   13.3928    4.4679 C.3     1  UNL1       -0.0256
     39 H           1.3553   14.1793    5.1799 H       1  UNL1        0.0344
     40 C           0.7530   14.0248    3.1190 C.3     1  UNL1       -0.0587
     41 H          -0.1447   14.6370    3.1943 H       1  UNL1        0.0236
     42 H           0.5714   13.2404    2.3862 H       1  UNL1        0.0236
     43 H           1.5666   14.6540    2.7611 H       1  UNL1        0.0236
     44 C          -0.1370   12.6292    4.9946 C.3     1  UNL1       -0.0587
     45 H          -1.0015   13.2868    5.0730 H       1  UNL1        0.0236
     46 H          -0.3712   11.8153    4.3120 H       1  UNL1        0.0236
     47 H           0.0585   12.1964    5.9736 H       1  UNL1        0.0236
     48 C           3.0750   12.1318    6.0846 C.3     1  UNL1       -0.0256
     49 H           2.1718   11.8933    6.6629 H       1  UNL1        0.0344
     50 C           3.6612   13.4480    6.5950 C.3     1  UNL1       -0.0587
     51 H           3.8016   13.3833    7.6733 H       1  UNL1        0.0236
     52 H           3.0118   14.2973    6.3952 H       1  UNL1        0.0236
     53 H           4.6332   13.6393    6.1448 H       1  UNL1        0.0236
     54 C           4.0797   11.0047    6.2911 C.3     1  UNL1       -0.0587
     55 H           4.3422   10.9259    7.3455 H       1  UNL1        0.0236
     56 H           4.9948   11.1865    5.7301 H       1  UNL1        0.0236
     57 H           3.6562   10.0559    5.9712 H       1  UNL1        0.0236
@<TRIPOS>BOND
     1     9     8    1
     2    22    20    1
     3     6     4    1
     4    11    10    1
     5    23    20    1
     6     8    10    2
     7     8     7    1
     8    29    28    1
     9    21    20    1
    10    32    30    1
    11    20    18    1
    12    10    12    1
    13    33    30    1
    14     4     5    1
    15     4     7    1
    16     4     1    1
    17    26    24    1
    18    30    28    1
    19    30    31    1
    20     7     3    1
    21    28     1    1
    22    28    34    1
    23    18    24    1
    24    18     1    1
    25    18    19    1
    26    37    34    1
    27    24    27    1
    28    24    25    1
    29    12    13    1
    30    12    14    2
    31    34    36    1
    32    34    35    1
    33     3    14    1
    34    14    15    1
    35    42    40    1
    36    43    40    1
    37    40    41    1
    38    40    38    1
    39    15    17    1
    40    15    16    1
    41    15     2    1
    42     2    38    1
    43     2    48    1
    44    46    44    1
    45    38    44    1
    46    38    39    1
    47    44    45    1
    48    44    47    1
    49    56    54    1
    50    57    54    1
    51    48    54    1
    52    48    50    1
    53    48    49    1
    54    53    50    1
    55    54    55    1
    56    52    50    1
    57    50    51    1
