@<TRIPOS>MOLECULE
1,9,17
 69 70 0 0 0
SMALL
GASTEIGER

@<TRIPOS>ATOM
      1 P           9.4551    9.6404   -0.4959 P.3     1  UNL1       -0.0674
      2 C          10.3160   11.1197   -1.1076 C.ar    1  UNL1        0.0002
      3 C           9.7362   12.1255   -1.8693 C.ar    1  UNL1       -0.0494
      4 C          10.4488   13.2520   -2.2513 C.ar    1  UNL1       -0.0497
      5 C           9.8167   14.3124   -3.1024 C.3     1  UNL1       -0.0397
      6 C          11.7705   13.3653   -1.8286 C.ar    1  UNL1       -0.0570
      7 C          12.3664   12.3864   -1.0664 C.ar    1  UNL1       -0.0378
      8 C          11.6649   11.2274   -0.6861 C.ar    1  UNL1        0.0613
      9 N          12.2064   10.2611    0.1253 N.pl3   1  UNL1       -0.2137
     10 C          13.5484    9.9971    0.0603 C.ar    1  UNL1        0.0613
     11 C          14.2833   10.1261   -1.1355 C.ar    1  UNL1       -0.0378
     12 C          15.6375    9.8949   -1.1778 C.ar    1  UNL1       -0.0570
     13 C          16.3462    9.5374   -0.0324 C.ar    1  UNL1       -0.0497
     14 C          17.8330    9.3477   -0.0828 C.3     1  UNL1       -0.0397
     15 C          15.6320    9.3619    1.1407 C.ar    1  UNL1       -0.0494
     16 C          14.2558    9.5479    1.2010 C.ar    1  UNL1        0.0002
     17 P          13.2501    9.2421    2.6875 P.3     1  UNL1       -0.0674
     18 C           9.6520    8.4651   -1.9545 C.3     1  UNL1       -0.0219
     19 C           9.1306    9.0182   -3.2765 C.3     1  UNL1       -0.0584
     20 C          11.1313    8.1016   -2.0688 C.3     1  UNL1       -0.0584
     21 C           7.6451   10.0884   -0.5450 C.3     1  UNL1       -0.0219
     22 C           7.4063   11.1354    0.5382 C.3     1  UNL1       -0.0584
     23 C           6.8239    8.8313   -0.2701 C.3     1  UNL1       -0.0584
     24 C          14.0246    7.7186    3.5015 C.3     1  UNL1       -0.0219
     25 C          14.3995    6.6848    2.4390 C.3     1  UNL1       -0.0584
     26 C          15.1839    7.9464    4.4691 C.3     1  UNL1       -0.0584
     27 C          13.7722   10.6814    3.7636 C.3     1  UNL1       -0.0219
     28 C          13.5958   11.9664    2.9596 C.3     1  UNL1       -0.0584
     29 C          12.8938   10.7173    5.0101 C.3     1  UNL1       -0.0584
     30 H           8.7033   12.0381   -2.1762 H       1  UNL1        0.0627
     31 H           8.7404   14.3434   -2.9473 H       1  UNL1        0.0278
     32 H          10.0008   14.1107   -4.1592 H       1  UNL1        0.0278
     33 H          10.2329   15.2904   -2.8711 H       1  UNL1        0.0278
     34 H          12.3381   14.2469   -2.0924 H       1  UNL1        0.0621
     35 H          13.3830   12.5201   -0.7210 H       1  UNL1        0.0637
     36 H          13.7636   10.4132   -2.0401 H       1  UNL1        0.0637
     37 H          16.1653   10.0026   -2.1153 H       1  UNL1        0.0621
     38 H          18.1017    8.6327   -0.8599 H       1  UNL1        0.0278
     39 H          18.3296   10.2904   -0.3140 H       1  UNL1        0.0278
     40 H          18.2128    8.9845    0.8694 H       1  UNL1        0.0278
     41 H          16.1678    9.0900    2.0384 H       1  UNL1        0.0627
     42 H           9.0896    7.5595   -1.6898 H       1  UNL1        0.0346
     43 H           9.6141    9.9651   -3.5106 H       1  UNL1        0.0236
     44 H           8.0545    9.1713   -3.2501 H       1  UNL1        0.0236
     45 H           9.3494    8.3165   -4.0808 H       1  UNL1        0.0236
     46 H          11.2748    7.3043   -2.7978 H       1  UNL1        0.0236
     47 H          11.5272    7.7647   -1.1067 H       1  UNL1        0.0236
     48 H          11.7072    8.9665   -2.3966 H       1  UNL1        0.0236
     49 H           7.3738   10.4976   -1.5241 H       1  UNL1        0.0346
     50 H           7.7175   10.7400    1.5082 H       1  UNL1        0.0236
     51 H           6.3521   11.4036    0.5892 H       1  UNL1        0.0236
     52 H           7.9850   12.0387    0.3478 H       1  UNL1        0.0236
     53 H           7.1911    8.3408    0.6317 H       1  UNL1        0.0236
     54 H           5.7768    9.0898   -0.1194 H       1  UNL1        0.0236
     55 H           6.8811    8.1275   -1.0985 H       1  UNL1        0.0236
     56 H          13.1883    7.3048    4.0801 H       1  UNL1        0.0346
     57 H          13.6136    6.5952    1.6886 H       1  UNL1        0.0236
     58 H          14.5401    5.7087    2.9015 H       1  UNL1        0.0236
     59 H          15.3197    6.9556    1.9275 H       1  UNL1        0.0236
     60 H          15.4953    6.9848    4.8765 H       1  UNL1        0.0236
     61 H          16.0467    8.3911    3.9803 H       1  UNL1        0.0236
     62 H          14.8921    8.5809    5.3016 H       1  UNL1        0.0236
     63 H          14.8283   10.5646    4.0359 H       1  UNL1        0.0346
     64 H          13.7885   12.8339    3.5893 H       1  UNL1        0.0236
     65 H          12.5699   12.0360    2.5881 H       1  UNL1        0.0236
     66 H          14.2823   11.9981    2.1140 H       1  UNL1        0.0236
     67 H          13.1773   11.5495    5.6528 H       1  UNL1        0.0236
     68 H          11.8523   10.8513    4.7108 H       1  UNL1        0.0236
     69 H          12.9746    9.7962    5.5857 H       1  UNL1        0.0236
@<TRIPOS>BOND
     1    32     5    1
     2    45    19    1
     3    43    19    1
     4    19    44    1
     5    19    18    1
     6     5    31    1
     7     5    33    1
     8     5     4    1
     9    46    20    1
    10    48    20    1
    11     4     3   ar
    12     4     6   ar
    13    30     3    1
    14    37    12    1
    15    34     6    1
    16    20    18    1
    17    20    47    1
    18    36    11    1
    19    18    42    1
    20    18     1    1
    21     3     2   ar
    22     6     7   ar
    23    49    21    1
    24    12    11   ar
    25    12    13   ar
    26    11    10   ar
    27     2     8   ar
    28     2     1    1
    29    55    23    1
    30     7    35    1
    31     7     8   ar
    32    38    14    1
    33     8     9    1
    34    21     1    1
    35    21    23    1
    36    21    22    1
    37    39    14    1
    38    23    54    1
    39    23    53    1
    40    14    13    1
    41    14    40    1
    42    13    15   ar
    43    10     9    1
    44    10    16   ar
    45    52    22    1
    46    22    51    1
    47    22    50    1
    48    15    16   ar
    49    15    41    1
    50    16    17    1
    51    57    25    1
    52    59    25    1
    53    66    28    1
    54    25    58    1
    55    25    24    1
    56    65    28    1
    57    17    24    1
    58    17    27    1
    59    28    64    1
    60    28    27    1
    61    24    56    1
    62    24    26    1
    63    27    63    1
    64    27    29    1
    65    61    26    1
    66    26    60    1
    67    26    62    1
    68    68    29    1
    69    29    69    1
    70    29    67    1
