@<TRIPOS>MOLECULE
1,9,17
 69 70 0 0 0
SMALL
GASTEIGER

@<TRIPOS>ATOM
      1 P           9.3629    1.9597    4.4728 P.3     1  UNL1       -0.0674
      2 C          10.4475    1.8200    5.9382 C.ar    1  UNL1        0.0002
      3 C          10.6906    0.6415    6.6310 C.ar    1  UNL1       -0.0494
      4 C          11.5260    0.6007    7.7380 C.ar    1  UNL1       -0.0497
      5 C          11.8059   -0.6881    8.4523 C.3     1  UNL1       -0.0397
      6 C          12.1233    1.7881    8.1496 C.ar    1  UNL1       -0.0570
      7 C          11.9017    2.9702    7.4792 C.ar    1  UNL1       -0.0378
      8 C          11.0689    3.0278    6.3472 C.ar    1  UNL1        0.0613
      9 N          10.9048    4.1668    5.5991 N.pl3   1  UNL1       -0.2137
     10 C          11.0214    5.4028    6.1757 C.ar    1  UNL1        0.0613
     11 C          10.5408    5.6762    7.4712 C.ar    1  UNL1       -0.0378
     12 C          10.5958    6.9428    8.0049 C.ar    1  UNL1       -0.0570
     13 C          11.1226    8.0087    7.2793 C.ar    1  UNL1       -0.0497
     14 C          11.1497    9.3894    7.8650 C.3     1  UNL1       -0.0397
     15 C          11.6077    7.7553    6.0059 C.ar    1  UNL1       -0.0494
     16 C          11.5826    6.4815    5.4492 C.ar    1  UNL1        0.0002
     17 P          12.2943    6.0410    3.8270 P.3     1  UNL1       -0.0674
     18 C           9.3113    0.2159    3.7868 C.3     1  UNL1       -0.0219
     19 C          10.7017   -0.1865    3.3151 C.3     1  UNL1       -0.0584
     20 C           8.3349    0.1714    2.6147 C.3     1  UNL1       -0.0584
     21 C           7.6833    2.0713    5.3499 C.3     1  UNL1       -0.0219
     22 C           7.2841    0.8619    6.1887 C.3     1  UNL1       -0.0584
     23 C           7.7220    3.3249    6.2188 C.3     1  UNL1       -0.0584
     24 C          12.2575    7.6614    2.8781 C.3     1  UNL1       -0.0219
     25 C          10.8071    8.0767    2.6660 C.3     1  UNL1       -0.0584
     26 C          12.9570    7.4884    1.5332 C.3     1  UNL1       -0.0584
     27 C          14.1202    5.9065    4.2851 C.3     1  UNL1       -0.0219
     28 C          14.2716    4.7665    5.2860 C.3     1  UNL1       -0.0584
     29 C          14.7510    7.1816    4.8381 C.3     1  UNL1       -0.0584
     30 H          10.2284   -0.2794    6.3042 H       1  UNL1        0.0627
     31 H          12.7758   -1.0831    8.1463 H       1  UNL1        0.0278
     32 H          11.0484   -1.4342    8.2218 H       1  UNL1        0.0278
     33 H          11.8326   -0.5355    9.5300 H       1  UNL1        0.0278
     34 H          12.7831    1.7805    9.0059 H       1  UNL1        0.0621
     35 H          12.4009    3.8701    7.8109 H       1  UNL1        0.0637
     36 H          10.1016    4.8710    8.0449 H       1  UNL1        0.0637
     37 H          10.2114    7.1184    9.0001 H       1  UNL1        0.0621
     38 H          11.6042    9.3780    8.8547 H       1  UNL1        0.0278
     39 H          10.1356    9.7764    7.9699 H       1  UNL1        0.0278
     40 H          11.7127   10.0711    7.2315 H       1  UNL1        0.0278
     41 H          12.0191    8.5803    5.4408 H       1  UNL1        0.0627
     42 H           8.9713   -0.4757    4.5642 H       1  UNL1        0.0346
     43 H          11.3926   -0.2650    4.1505 H       1  UNL1        0.0236
     44 H          10.6635   -1.1493    2.8067 H       1  UNL1        0.0236
     45 H          11.0904    0.5688    2.6297 H       1  UNL1        0.0236
     46 H           8.3063   -0.8298    2.1861 H       1  UNL1        0.0236
     47 H           8.6578    0.8667    1.8407 H       1  UNL1        0.0236
     48 H           7.3240    0.4324    2.9229 H       1  UNL1        0.0236
     49 H           6.9356    2.2159    4.5595 H       1  UNL1        0.0346
     50 H           6.3715    1.0904    6.7386 H       1  UNL1        0.0236
     51 H           7.0891   -0.0129    5.5735 H       1  UNL1        0.0236
     52 H           8.0618    0.6248    6.9116 H       1  UNL1        0.0236
     53 H           8.3796    3.1652    7.0730 H       1  UNL1        0.0236
     54 H           8.0967    4.1718    5.6435 H       1  UNL1        0.0236
     55 H           6.7298    3.5729    6.5941 H       1  UNL1        0.0236
     56 H          12.7774    8.4363    3.4500 H       1  UNL1        0.0346
     57 H          10.2601    7.2720    2.1776 H       1  UNL1        0.0236
     58 H          10.3187    8.2902    3.6140 H       1  UNL1        0.0236
     59 H          10.7528    8.9687    2.0415 H       1  UNL1        0.0236
     60 H          12.9438    8.4265    0.9788 H       1  UNL1        0.0236
     61 H          12.4443    6.7347    0.9361 H       1  UNL1        0.0236
     62 H          13.9937    7.1841    1.6594 H       1  UNL1        0.0236
     63 H          14.6327    5.6155    3.3622 H       1  UNL1        0.0346
     64 H          15.3240    4.5369    5.4397 H       1  UNL1        0.0236
     65 H          13.7690    3.8717    4.9032 H       1  UNL1        0.0236
     66 H          13.8370    5.0450    6.2458 H       1  UNL1        0.0236
     67 H          15.7690    6.9650    5.1592 H       1  UNL1        0.0236
     68 H          14.8028    7.9714    4.0928 H       1  UNL1        0.0236
     69 H          14.1977    7.5424    5.7032 H       1  UNL1        0.0236
@<TRIPOS>BOND
     1    61    26    1
     2    60    26    1
     3    26    62    1
     4    26    24    1
     5    47    20    1
     6    59    25    1
     7    57    25    1
     8    46    20    1
     9    20    48    1
    10    20    18    1
    11    45    19    1
    12    25    24    1
    13    25    58    1
    14    44    19    1
    15    24    56    1
    16    24    17    1
    17    19    18    1
    18    19    43    1
    19    63    27    1
    20    18     1    1
    21    18    42    1
    22    17    27    1
    23    17    16    1
    24    68    29    1
    25    27    29    1
    26    27    28    1
    27     1    21    1
    28     1     2    1
    29    49    21    1
    30    29    67    1
    31    29    69    1
    32    65    28    1
    33    28    64    1
    34    28    66    1
    35    21    22    1
    36    21    23    1
    37    41    15    1
    38    16    15   ar
    39    16    10   ar
    40    51    22    1
    41     9    10    1
    42     9     8    1
    43    54    23    1
    44     2     8   ar
    45     2     3   ar
    46    15    13   ar
    47    10    11   ar
    48    22    50    1
    49    22    52    1
    50    23    55    1
    51    23    53    1
    52    30     3    1
    53     8     7   ar
    54     3     4   ar
    55    40    14    1
    56    13    14    1
    57    13    12   ar
    58    11    12   ar
    59    11    36    1
    60     7    35    1
    61     7     6   ar
    62     4     6   ar
    63     4     5    1
    64    14    39    1
    65    14    38    1
    66    12    37    1
    67    31     5    1
    68     6    34    1
    69    32     5    1
    70     5    33    1
