@<TRIPOS>MOLECULE
1,2,5
 71 74 0 0 0
SMALL
GASTEIGER

@<TRIPOS>ATOM
      1 P           2.9264    4.5340    2.5805 P.3     1  UNL1        0.0000
      2 P           4.6600    1.6580    3.8246 P.3     1  UNL1        0.0000
      3 SI          5.5617    5.4348    1.2859 Si      1  UNL1        0.0000
      4 SI          6.8896    2.7536    2.0853 Si      1  UNL1        0.0000
      5 N           5.8449    4.0854    2.2904 N.3     1  UNL1        0.0000
      6 C           3.6741    5.7991    1.5058 C.3     1  UNL1        0.0000
      7 C           5.7805    1.2159    2.4714 C.3     1  UNL1        0.0000
      8 C           5.8201    5.2550   -0.5967 C.3     1  UNL1        0.0000
      9 C           6.5708    7.0079    1.7144 C.3     1  UNL1        0.0000
     10 C           7.5584    2.4457    0.3295 C.3     1  UNL1        0.0000
     11 C           8.4439    2.7566    3.2048 C.3     1  UNL1        0.0000
     12 C           2.3579    3.2324    1.4391 C.ar    1  UNL1        0.0000
     13 C           3.2683    2.6821    0.5430 C.ar    1  UNL1        0.0000
     14 C           2.8955    1.6373   -0.2819 C.ar    1  UNL1        0.0000
     15 C           1.6099    1.1249   -0.2172 C.ar    1  UNL1        0.0000
     16 C           0.7003    1.6643    0.6760 C.ar    1  UNL1        0.0000
     17 C           1.0710    2.7071    1.5056 C.ar    1  UNL1        0.0000
     18 C           1.3532    5.3335    3.0502 C.ar    1  UNL1        0.0000
     19 C           1.0174    5.5344    4.3821 C.ar    1  UNL1        0.0000
     20 C          -0.1512    6.1998    4.7136 C.ar    1  UNL1        0.0000
     21 C          -0.9917    6.6667    3.7178 C.ar    1  UNL1        0.0000
     22 C          -0.6633    6.4668    2.3853 C.ar    1  UNL1        0.0000
     23 C           0.5033    5.8061    2.0520 C.ar    1  UNL1        0.0000
     24 C           5.3130    0.8039    5.2969 C.ar    1  UNL1        0.0000
     25 C           4.4484    0.6153    6.3728 C.ar    1  UNL1        0.0000
     26 C           4.8979    0.0210    7.5355 C.ar    1  UNL1        0.0000
     27 C           6.2201   -0.3825    7.6435 C.ar    1  UNL1        0.0000
     28 C           7.0883   -0.1832    6.5843 C.ar    1  UNL1        0.0000
     29 C           6.6394    0.4089    5.4158 C.ar    1  UNL1        0.0000
     30 C           3.1558    0.6533    3.5492 C.ar    1  UNL1        0.0000
     31 C           1.9238    1.1385    3.9708 C.ar    1  UNL1        0.0000
     32 C           0.7822    0.3733    3.8165 C.ar    1  UNL1        0.0000
     33 C           0.8604   -0.8768    3.2261 C.ar    1  UNL1        0.0000
     34 C           2.0846   -1.3630    2.7983 C.ar    1  UNL1        0.0000
     35 C           3.2297   -0.6057    2.9652 C.ar    1  UNL1        0.0000
     36 H           3.1420    5.8275    0.5550 H       1  UNL1        0.0000
     37 H           3.5183    6.7547    2.0080 H       1  UNL1        0.0000
     38 H           6.3306    0.3064    2.7056 H       1  UNL1        0.0000
     39 H           5.1547    1.0265    1.5996 H       1  UNL1        0.0000
     40 H           5.2511    4.4446   -1.0386 H       1  UNL1        0.0000
     41 H           5.5356    6.1706   -1.1064 H       1  UNL1        0.0000
     42 H           6.8669    5.0785   -0.8109 H       1  UNL1        0.0000
     43 H           7.6136    6.8410    1.4624 H       1  UNL1        0.0000
     44 H           6.2299    7.8605    1.1340 H       1  UNL1        0.0000
     45 H           6.5364    7.2924    2.7606 H       1  UNL1        0.0000
     46 H           8.1134    1.5147    0.2783 H       1  UNL1        0.0000
     47 H           6.7713    2.4040   -0.4137 H       1  UNL1        0.0000
     48 H           8.2350    3.2438    0.0486 H       1  UNL1        0.0000
     49 H           9.0515    1.8702    3.0421 H       1  UNL1        0.0000
     50 H           9.0616    3.6174    2.9656 H       1  UNL1        0.0000
     51 H           8.2093    2.8078    4.2625 H       1  UNL1        0.0000
     52 H           4.2707    3.0783    0.5104 H       1  UNL1        0.0000
     53 H           3.6092    1.2179   -0.9771 H       1  UNL1        0.0000
     54 H           1.3188    0.3071   -0.8597 H       1  UNL1        0.0000
     55 H          -0.3021    1.2658    0.7319 H       1  UNL1        0.0000
     56 H           0.3582    3.1171    2.2061 H       1  UNL1        0.0000
     57 H           1.6800    5.1739    5.1550 H       1  UNL1        0.0000
     58 H          -0.3990    6.3574    5.7523 H       1  UNL1        0.0000
     59 H          -1.9021    7.1876    3.9755 H       1  UNL1        0.0000
     60 H          -1.3184    6.8288    1.6060 H       1  UNL1        0.0000
     61 H           0.7564    5.6456    1.0127 H       1  UNL1        0.0000
     62 H           3.4230    0.9456    6.2862 H       1  UNL1        0.0000
     63 H           4.2195   -0.1247    8.3633 H       1  UNL1        0.0000
     64 H           6.5735   -0.8452    8.5531 H       1  UNL1        0.0000
     65 H           8.1218   -0.4880    6.6677 H       1  UNL1        0.0000
     66 H           7.3302    0.5692    4.6022 H       1  UNL1        0.0000
     67 H           1.8778    2.1265    4.4116 H       1  UNL1        0.0000
     68 H          -0.1711    0.7543    4.1524 H       1  UNL1        0.0000
     69 H          -0.0308   -1.4736    3.0997 H       1  UNL1        0.0000
     70 H           2.1477   -2.3388    2.3389 H       1  UNL1        0.0000
     71 H           4.1843   -0.9966    2.6435 H       1  UNL1        0.0000
@<TRIPOS>BOND
     1    41     8    1
     2    40     8    1
     3    53    14    1
     4    54    15    1
     5    42     8    1
     6     8     3    1
     7    47    10    1
     8    14    15   ar
     9    14    13   ar
    10    15    16   ar
    11    48    10    1
    12    46    10    1
    13    10     4    1
    14    52    13    1
    15    13    12   ar
    16    36     6    1
    17    16    55    1
    18    16    17   ar
    19    61    23    1
    20    44     9    1
    21     3     6    1
    22     3     9    1
    23     3     5    1
    24    12    17   ar
    25    12     1    1
    26    43     9    1
    27    17    56    1
    28     6    37    1
    29     6     1    1
    30    39     7    1
    31    60    22    1
    32     9    45    1
    33    23    22   ar
    34    23    18   ar
    35     4     5    1
    36     4     7    1
    37     4    11    1
    38    70    34    1
    39    22    21   ar
    40     7    38    1
    41     7     2    1
    42     1    18    1
    43    71    35    1
    44    34    35   ar
    45    34    33   ar
    46    35    30   ar
    47    50    11    1
    48    49    11    1
    49    18    19   ar
    50    69    33    1
    51    11    51    1
    52    33    32   ar
    53    30     2    1
    54    30    31   ar
    55    21    59    1
    56    21    20   ar
    57    32    31   ar
    58    32    68    1
    59     2    24    1
    60    31    67    1
    61    19    20   ar
    62    19    57    1
    63    66    29    1
    64    20    58    1
    65    24    29   ar
    66    24    25   ar
    67    29    28   ar
    68    62    25    1
    69    25    26   ar
    70    28    65    1
    71    28    27   ar
    72    26    27   ar
    73    26    63    1
    74    27    64    1
