@<TRIPOS>MOLECULE
1,2,5
 71 74 0 0 0
SMALL
GASTEIGER

@<TRIPOS>ATOM
      1 P           1.9128    3.9741    1.5079 P.3     1  UNL1        0.0000
      2 P           3.6900    1.3106   -0.2762 P.3     1  UNL1        0.0000
      3 SI          4.4904    5.6161    1.1479 Si      1  UNL1        0.0000
      4 SI          6.0023    3.3083   -0.1965 Si      1  UNL1        0.0000
      5 N           4.6164    4.2436    0.1431 N.3     1  UNL1        0.0000
      6 C           2.7104    5.5623    1.8971 C.3     1  UNL1        0.0000
      7 C           5.4619    1.4729    0.0917 C.3     1  UNL1        0.0000
      8 C           4.7156    7.2981    0.2530 C.3     1  UNL1        0.0000
      9 C           5.6185    5.7590    2.6848 C.3     1  UNL1        0.0000
     10 C           6.7639    3.4728   -1.9511 C.3     1  UNL1        0.0000
     11 C           7.5045    3.5378    0.9547 C.3     1  UNL1        0.0000
     12 C           2.3862    2.9378    2.9347 C.ar    1  UNL1        0.0000
     13 C           3.7288    2.5858    3.0324 C.ar    1  UNL1        0.0000
     14 C           4.1647    1.7571    4.0475 C.ar    1  UNL1        0.0000
     15 C           3.2610    1.2614    4.9740 C.ar    1  UNL1        0.0000
     16 C           1.9233    1.6016    4.8780 C.ar    1  UNL1        0.0000
     17 C           1.4829    2.4321    3.8616 C.ar    1  UNL1        0.0000
     18 C           0.1514    4.3160    1.8745 C.ar    1  UNL1        0.0000
     19 C          -0.2136    5.1003    2.9657 C.ar    1  UNL1        0.0000
     20 C          -1.5452    5.3733    3.2184 C.ar    1  UNL1        0.0000
     21 C          -2.5297    4.8670    2.3849 C.ar    1  UNL1        0.0000
     22 C          -2.1759    4.0833    1.2997 C.ar    1  UNL1        0.0000
     23 C          -0.8428    3.8100    1.0470 C.ar    1  UNL1        0.0000
     24 C           3.0828    0.1138    0.9715 C.ar    1  UNL1        0.0000
     25 C           1.7949    0.2397    1.4762 C.ar    1  UNL1        0.0000
     26 C           1.3203   -0.6577    2.4152 C.ar    1  UNL1        0.0000
     27 C           2.1303   -1.6896    2.8585 C.ar    1  UNL1        0.0000
     28 C           3.4105   -1.8296    2.3487 C.ar    1  UNL1        0.0000
     29 C           3.8840   -0.9359    1.4057 C.ar    1  UNL1        0.0000
     30 C           3.6265    0.2310   -1.7465 C.ar    1  UNL1        0.0000
     31 C           2.5095   -0.5768   -1.9412 C.ar    1  UNL1        0.0000
     32 C           2.4030   -1.3638   -3.0721 C.ar    1  UNL1        0.0000
     33 C           3.4046   -1.3460   -4.0297 C.ar    1  UNL1        0.0000
     34 C           4.5087   -0.5296   -3.8531 C.ar    1  UNL1        0.0000
     35 C           4.6179    0.2575   -2.7201 C.ar    1  UNL1        0.0000
     36 H           2.0914    6.3451    1.4605 H       1  UNL1        0.0000
     37 H           2.7306    5.7029    2.9775 H       1  UNL1        0.0000
     38 H           5.5854    1.2466    1.1500 H       1  UNL1        0.0000
     39 H           6.0374    0.7483   -0.4813 H       1  UNL1        0.0000
     40 H           5.6085    7.2647   -0.3632 H       1  UNL1        0.0000
     41 H           3.8849    7.5713   -0.3905 H       1  UNL1        0.0000
     42 H           4.8464    8.1020    0.9707 H       1  UNL1        0.0000
     43 H           5.5829    4.8773    3.3161 H       1  UNL1        0.0000
     44 H           6.6476    5.9104    2.3826 H       1  UNL1        0.0000
     45 H           5.3326    6.6109    3.2956 H       1  UNL1        0.0000
     46 H           7.7404    2.9974   -1.9870 H       1  UNL1        0.0000
     47 H           6.1591    3.0383   -2.7400 H       1  UNL1        0.0000
     48 H           6.9096    4.5218   -2.1919 H       1  UNL1        0.0000
     49 H           7.2464    3.4281    2.0012 H       1  UNL1        0.0000
     50 H           8.2877    2.8210    0.7290 H       1  UNL1        0.0000
     51 H           7.9214    4.5288    0.8202 H       1  UNL1        0.0000
     52 H           4.4159    2.9720    2.2949 H       1  UNL1        0.0000
     53 H           5.2097    1.4898    4.1178 H       1  UNL1        0.0000
     54 H           3.5983    0.6082    5.7653 H       1  UNL1        0.0000
     55 H           1.2153    1.2130    5.5959 H       1  UNL1        0.0000
     56 H           0.4334    2.6786    3.7885 H       1  UNL1        0.0000
     57 H           0.5477    5.4931    3.6245 H       1  UNL1        0.0000
     58 H          -1.8175    5.9830    4.0681 H       1  UNL1        0.0000
     59 H          -3.5691    5.0847    2.5824 H       1  UNL1        0.0000
     60 H          -2.9407    3.6864    0.6481 H       1  UNL1        0.0000
     61 H          -0.5528    3.2067    0.1985 H       1  UNL1        0.0000
     62 H           1.1778    1.0568    1.1242 H       1  UNL1        0.0000
     63 H           0.3187   -0.5506    2.8049 H       1  UNL1        0.0000
     64 H           1.7643   -2.3871    3.5975 H       1  UNL1        0.0000
     65 H           4.0402   -2.6404    2.6860 H       1  UNL1        0.0000
     66 H           4.8792   -1.0567    1.0019 H       1  UNL1        0.0000
     67 H           1.7258   -0.5797   -1.1973 H       1  UNL1        0.0000
     68 H           1.5354   -1.9926   -3.2106 H       1  UNL1        0.0000
     69 H           3.3220   -1.9615   -4.9134 H       1  UNL1        0.0000
     70 H           5.2872   -0.5040   -4.6023 H       1  UNL1        0.0000
     71 H           5.4763    0.9006   -2.5966 H       1  UNL1        0.0000
@<TRIPOS>BOND
     1    69    33    1
     2    70    34    1
     3    33    34   ar
     4    33    32   ar
     5    34    35   ar
     6    68    32    1
     7    32    31   ar
     8    47    10    1
     9    35    71    1
    10    35    30   ar
    11    48    10    1
    12    46    10    1
    13    10     4    1
    14    31    30   ar
    15    31    67    1
    16    30     2    1
    17    39     7    1
    18    41     8    1
    19    40     8    1
    20     2     7    1
    21     2    24    1
    22     4     7    1
    23     4     5    1
    24     4    11    1
    25     7    38    1
    26     5     3    1
    27    61    23    1
    28     8    42    1
    29     8     3    1
    30    60    22    1
    31    50    11    1
    32    51    11    1
    33    11    49    1
    34    24    29   ar
    35    24    25   ar
    36    66    29    1
    37    23    22   ar
    38    23    18   ar
    39    62    25    1
    40     3     6    1
    41     3     9    1
    42    22    21   ar
    43    29    28   ar
    44    36     6    1
    45    25    26   ar
    46     1    18    1
    47     1     6    1
    48     1    12    1
    49    18    19   ar
    50     6    37    1
    51    52    13    1
    52    28    65    1
    53    28    27   ar
    54    44     9    1
    55    21    59    1
    56    21    20   ar
    57    26    63    1
    58    26    27   ar
    59     9    45    1
    60     9    43    1
    61    27    64    1
    62    12    13   ar
    63    12    17   ar
    64    19    20   ar
    65    19    57    1
    66    13    14   ar
    67    20    58    1
    68    56    17    1
    69    17    16   ar
    70    14    53    1
    71    14    15   ar
    72    16    15   ar
    73    16    55    1
    74    15    54    1
