@<TRIPOS>MOLECULE
1,2,5
 71 74 0 0 0
SMALL
GASTEIGER

@<TRIPOS>ATOM
      1 P           1.0272    1.8128    2.5928 P.3     1  UNL1        0.0000
      2 P           3.4917    2.4801    4.9277 P.3     1  UNL1        0.0000
      3 SI          2.4768    3.6492    0.6553 Si      1  UNL1        0.0000
      4 SI          4.7891    4.0950    2.7126 Si      1  UNL1        0.0000
      5 N           3.1932    3.7691    2.2002 N.3     1  UNL1        0.0000
      6 C           0.9294    2.5166    0.9086 C.3     1  UNL1        0.0000
      7 C           5.1044    2.8092    4.1211 C.3     1  UNL1        0.0000
      8 C           3.5201    2.8163   -0.7120 C.3     1  UNL1        0.0000
      9 C           1.8786    5.3287   -0.0492 C.3     1  UNL1        0.0000
     10 C           6.1477    3.8297    1.4026 C.3     1  UNL1        0.0000
     11 C           5.0384    5.8659    3.4061 C.3     1  UNL1        0.0000
     12 C          -0.6609    1.1649    2.8855 C.ar    1  UNL1        0.0000
     13 C          -1.1041    1.0621    4.2008 C.ar    1  UNL1        0.0000
     14 C          -2.3715    0.5872    4.4847 C.ar    1  UNL1        0.0000
     15 C          -3.2172    0.2141    3.4527 C.ar    1  UNL1        0.0000
     16 C          -2.7876    0.3159    2.1399 C.ar    1  UNL1        0.0000
     17 C          -1.5175    0.7863    1.8565 C.ar    1  UNL1        0.0000
     18 C           1.9339    0.2593    2.2467 C.ar    1  UNL1        0.0000
     19 C           3.3105    0.3879    2.0867 C.ar    1  UNL1        0.0000
     20 C           4.1005   -0.7276    1.8916 C.ar    1  UNL1        0.0000
     21 C           3.5239   -1.9885    1.8675 C.ar    1  UNL1        0.0000
     22 C           2.1566   -2.1232    2.0302 C.ar    1  UNL1        0.0000
     23 C           1.3606   -1.0063    2.2212 C.ar    1  UNL1        0.0000
     24 C           3.7380    3.1069    6.6294 C.ar    1  UNL1        0.0000
     25 C           3.0517    2.5035    7.6806 C.ar    1  UNL1        0.0000
     26 C           3.1245    3.0241    8.9590 C.ar    1  UNL1        0.0000
     27 C           3.8751    4.1625    9.2043 C.ar    1  UNL1        0.0000
     28 C           4.5476    4.7795    8.1623 C.ar    1  UNL1        0.0000
     29 C           4.4750    4.2596    6.8826 C.ar    1  UNL1        0.0000
     30 C           3.6065    0.6867    5.3128 C.ar    1  UNL1        0.0000
     31 C           2.4553   -0.0851    5.2407 C.ar    1  UNL1        0.0000
     32 C           2.4953   -1.4416    5.5032 C.ar    1  UNL1        0.0000
     33 C           3.6962   -2.0398    5.8460 C.ar    1  UNL1        0.0000
     34 C           4.8468   -1.2741    5.9416 C.ar    1  UNL1        0.0000
     35 C           4.8038    0.0836    5.6822 C.ar    1  UNL1        0.0000
     36 H           0.8626    1.7279    0.1579 H       1  UNL1        0.0000
     37 H           0.0189    3.1166    0.8713 H       1  UNL1        0.0000
     38 H           5.8470    3.1256    4.8521 H       1  UNL1        0.0000
     39 H           5.4400    1.8700    3.6810 H       1  UNL1        0.0000
     40 H           3.8586    1.8258   -0.4283 H       1  UNL1        0.0000
     41 H           2.9427    2.7210   -1.6260 H       1  UNL1        0.0000
     42 H           4.3922    3.4158   -0.9397 H       1  UNL1        0.0000
     43 H           2.7334    5.9613   -0.2623 H       1  UNL1        0.0000
     44 H           1.3277    5.1994   -0.9754 H       1  UNL1        0.0000
     45 H           1.2405    5.8653    0.6449 H       1  UNL1        0.0000
     46 H           6.1065    2.8423    0.9596 H       1  UNL1        0.0000
     47 H           6.0380    4.5553    0.6065 H       1  UNL1        0.0000
     48 H           7.1332    3.9630    1.8350 H       1  UNL1        0.0000
     49 H           6.0329    5.9948    3.8236 H       1  UNL1        0.0000
     50 H           4.9259    6.5941    2.6092 H       1  UNL1        0.0000
     51 H           4.3158    6.1104    4.1777 H       1  UNL1        0.0000
     52 H          -0.4450    1.3725    5.0032 H       1  UNL1        0.0000
     53 H          -2.7038    0.5116    5.5102 H       1  UNL1        0.0000
     54 H          -4.2095   -0.1527    3.6707 H       1  UNL1        0.0000
     55 H          -3.4457    0.0261    1.3331 H       1  UNL1        0.0000
     56 H          -1.1885    0.8552    0.8299 H       1  UNL1        0.0000
     57 H           3.7362    1.3817    2.1240 H       1  UNL1        0.0000
     58 H           5.1687   -0.6212    1.7666 H       1  UNL1        0.0000
     59 H           4.1405   -2.8642    1.7264 H       1  UNL1        0.0000
     60 H           1.7056   -3.1052    2.0139 H       1  UNL1        0.0000
     61 H           0.2948   -1.1246    2.3573 H       1  UNL1        0.0000
     62 H           2.4637    1.6160    7.4873 H       1  UNL1        0.0000
     63 H           2.5932    2.5434    9.7682 H       1  UNL1        0.0000
     64 H           3.9320    4.5703   10.2029 H       1  UNL1        0.0000
     65 H           5.1275    5.6725    8.3486 H       1  UNL1        0.0000
     66 H           4.9895    4.7550    6.0717 H       1  UNL1        0.0000
     67 H           1.5276    0.3987    4.9607 H       1  UNL1        0.0000
     68 H           1.5936   -2.0328    5.4361 H       1  UNL1        0.0000
     69 H           3.7358   -3.1010    6.0437 H       1  UNL1        0.0000
     70 H           5.7813   -1.7391    6.2214 H       1  UNL1        0.0000
     71 H           5.7015    0.6790    5.7708 H       1  UNL1        0.0000
@<TRIPOS>BOND
     1    41     8    1
     2    44     9    1
     3    42     8    1
     4     8    40    1
     5     8     3    1
     6    43     9    1
     7     9    45    1
     8     9     3    1
     9    36     6    1
    10    47    10    1
    11     3     6    1
    12     3     5    1
    13    56    17    1
    14    37     6    1
    15     6     1    1
    16    46    10    1
    17    55    16    1
    18    10    48    1
    19    10     4    1
    20    59    21    1
    21    58    20    1
    22    17    16   ar
    23    17    12   ar
    24    21    20   ar
    25    21    22   ar
    26    20    19   ar
    27    60    22    1
    28    22    23   ar
    29    19    57    1
    30    19    18   ar
    31    16    15   ar
    32     5     4    1
    33    23    18   ar
    34    23    61    1
    35    18     1    1
    36     1    12    1
    37    50    11    1
    38     4    11    1
    39     4     7    1
    40    12    13   ar
    41    11    49    1
    42    11    51    1
    43    15    54    1
    44    15    14   ar
    45    39     7    1
    46     7    38    1
    47     7     2    1
    48    13    14   ar
    49    13    52    1
    50    14    53    1
    51     2    30    1
    52     2    24    1
    53    67    31    1
    54    31    30   ar
    55    31    32   ar
    56    30    35   ar
    57    68    32    1
    58    32    33   ar
    59    35    71    1
    60    35    34   ar
    61    33    34   ar
    62    33    69    1
    63    34    70    1
    64    66    29    1
    65    24    29   ar
    66    24    25   ar
    67    29    28   ar
    68    62    25    1
    69    25    26   ar
    70    28    65    1
    71    28    27   ar
    72    26    27   ar
    73    26    63    1
    74    27    64    1
