@<TRIPOS>MOLECULE
1,2,5
 71 74 0 0 0
SMALL
GASTEIGER

@<TRIPOS>ATOM
      1 P           2.2091    5.6665    6.9152 P.3     1  UNL1        0.0000
      2 P           2.9398    2.7268    9.0655 P.3     1  UNL1        0.0000
      3 SI          5.2619    5.9593    6.9456 Si      1  UNL1        0.0000
      4 SI          5.8651    3.4833    8.7037 Si      1  UNL1        0.0000
      5 N           4.9298    4.7885    8.1356 N.3     1  UNL1        0.0000
      6 C           3.6572    6.0268    5.8633 C.3     1  UNL1        0.0000
      7 C           4.6254    2.2664    9.5523 C.3     1  UNL1        0.0000
      8 C           5.6490    7.7210    7.5957 C.3     1  UNL1        0.0000
      9 C           6.6760    5.5521    5.7368 C.3     1  UNL1        0.0000
     10 C           6.7794    2.4181    7.4066 C.3     1  UNL1        0.0000
     11 C           7.1767    3.9744   10.0097 C.3     1  UNL1        0.0000
     12 C           1.1466    4.6441    5.8271 C.ar    1  UNL1        0.0000
     13 C           1.0367    4.9070    4.4666 C.ar    1  UNL1        0.0000
     14 C           0.2497    4.1003    3.6650 C.ar    1  UNL1        0.0000
     15 C          -0.4379    3.0301    4.2141 C.ar    1  UNL1        0.0000
     16 C          -0.3500    2.7761    5.5727 C.ar    1  UNL1        0.0000
     17 C           0.4370    3.5833    6.3724 C.ar    1  UNL1        0.0000
     18 C           1.2507    7.2188    6.8502 C.ar    1  UNL1        0.0000
     19 C           1.8964    8.4498    6.9034 C.ar    1  UNL1        0.0000
     20 C           1.1680    9.6247    6.9348 C.ar    1  UNL1        0.0000
     21 C          -0.2166    9.5849    6.9207 C.ar    1  UNL1        0.0000
     22 C          -0.8680    8.3635    6.8737 C.ar    1  UNL1        0.0000
     23 C          -0.1406    7.1878    6.8419 C.ar    1  UNL1        0.0000
     24 C           2.7593    1.8013    7.5007 C.ar    1  UNL1        0.0000
     25 C           3.3208    2.3756    6.3651 C.ar    1  UNL1        0.0000
     26 C           3.2207    1.7469    5.1397 C.ar    1  UNL1        0.0000
     27 C           2.5488    0.5391    5.0348 C.ar    1  UNL1        0.0000
     28 C           1.9925   -0.0396    6.1622 C.ar    1  UNL1        0.0000
     29 C           2.0966    0.5854    7.3937 C.ar    1  UNL1        0.0000
     30 C           1.8474    1.7665   10.1768 C.ar    1  UNL1        0.0000
     31 C           2.3227    0.8393   11.0967 C.ar    1  UNL1        0.0000
     32 C           1.4456    0.1491   11.9163 C.ar    1  UNL1        0.0000
     33 C           0.0830    0.3749   11.8281 C.ar    1  UNL1        0.0000
     34 C          -0.4016    1.2971   10.9141 C.ar    1  UNL1        0.0000
     35 C           0.4744    1.9877   10.0986 C.ar    1  UNL1        0.0000
     36 H           3.7168    5.2352    5.1167 H       1  UNL1        0.0000
     37 H           3.5189    6.9721    5.3409 H       1  UNL1        0.0000
     38 H           4.6917    2.3781   10.6327 H       1  UNL1        0.0000
     39 H           4.8152    1.2255    9.2896 H       1  UNL1        0.0000
     40 H           6.5833    7.7073    8.1484 H       1  UNL1        0.0000
     41 H           5.7647    8.4318    6.7817 H       1  UNL1        0.0000
     42 H           4.8841    8.1021    8.2635 H       1  UNL1        0.0000
     43 H           6.5241    4.6014    5.2398 H       1  UNL1        0.0000
     44 H           6.7844    6.3158    4.9739 H       1  UNL1        0.0000
     45 H           7.6124    5.4944    6.2788 H       1  UNL1        0.0000
     46 H           7.2643    1.5639    7.8699 H       1  UNL1        0.0000
     47 H           6.1100    2.0426    6.6395 H       1  UNL1        0.0000
     48 H           7.5502    3.0022    6.9190 H       1  UNL1        0.0000
     49 H           7.6651    3.1072   10.4431 H       1  UNL1        0.0000
     50 H           7.9431    4.5813    9.5398 H       1  UNL1        0.0000
     51 H           6.7550    4.5582   10.8213 H       1  UNL1        0.0000
     52 H           1.5657    5.7454    4.0356 H       1  UNL1        0.0000
     53 H           0.1714    4.3056    2.6070 H       1  UNL1        0.0000
     54 H          -1.0448    2.3979    3.5827 H       1  UNL1        0.0000
     55 H          -0.8894    1.9466    6.0060 H       1  UNL1        0.0000
     56 H           0.5297    3.3999    7.4341 H       1  UNL1        0.0000
     57 H           2.9758    8.4851    6.9225 H       1  UNL1        0.0000
     58 H           1.6805   10.5755    6.9736 H       1  UNL1        0.0000
     59 H          -0.7853   10.5028    6.9476 H       1  UNL1        0.0000
     60 H          -1.9479    8.3277    6.8635 H       1  UNL1        0.0000
     61 H          -0.6523    6.2363    6.8027 H       1  UNL1        0.0000
     62 H           3.8368    3.3188    6.4736 H       1  UNL1        0.0000
     63 H           3.6583    2.1984    4.2609 H       1  UNL1        0.0000
     64 H           2.4595    0.0497    4.0760 H       1  UNL1        0.0000
     65 H           1.4723   -0.9835    6.0833 H       1  UNL1        0.0000
     66 H           1.6571    0.1273    8.2684 H       1  UNL1        0.0000
     67 H           3.3817    0.6460   11.1750 H       1  UNL1        0.0000
     68 H           1.8287   -0.5697   12.6265 H       1  UNL1        0.0000
     69 H          -0.5987   -0.1642   12.4694 H       1  UNL1        0.0000
     70 H          -1.4641    1.4786   10.8413 H       1  UNL1        0.0000
     71 H           0.1012    2.7132    9.3919 H       1  UNL1        0.0000
@<TRIPOS>BOND
     1    53    14    1
     2    54    15    1
     3    14    15   ar
     4    14    13   ar
     5    52    13    1
     6    64    27    1
     7    15    16   ar
     8    63    26    1
     9    13    12   ar
    10    44     9    1
    11    27    26   ar
    12    27    28   ar
    13    36     6    1
    14    26    25   ar
    15    43     9    1
    16    37     6    1
    17    16    55    1
    18    16    17   ar
    19     9    45    1
    20     9     3    1
    21    12    17   ar
    22    12     1    1
    23     6     1    1
    24     6     3    1
    25    65    28    1
    26    28    29   ar
    27    25    62    1
    28    25    24   ar
    29    17    56    1
    30    47    10    1
    31    41     8    1
    32    61    23    1
    33    23    18   ar
    34    23    22   ar
    35    18    19   ar
    36    18     1    1
    37    60    22    1
    38    22    21   ar
    39    19    57    1
    40    19    20   ar
    41    48    10    1
    42    21    20   ar
    43    21    59    1
    44    20    58    1
    45     3     8    1
    46     3     5    1
    47    29    24   ar
    48    29    66    1
    49    10    46    1
    50    10     4    1
    51    24     2    1
    52     8    40    1
    53     8    42    1
    54     5     4    1
    55     4     7    1
    56     4    11    1
    57     2     7    1
    58     2    30    1
    59    39     7    1
    60    71    35    1
    61    50    11    1
    62     7    38    1
    63    11    49    1
    64    11    51    1
    65    35    30   ar
    66    35    34   ar
    67    30    31   ar
    68    70    34    1
    69    34    33   ar
    70    31    67    1
    71    31    32   ar
    72    33    32   ar
    73    33    69    1
    74    32    68    1
