@<TRIPOS>MOLECULE
1,2,3,4,8
 59 59 0 0 0
SMALL
GASTEIGER

@<TRIPOS>ATOM
      1 O           6.0265   12.8583    9.8088 O.3     1  UNL1        0.0000
      2 N           6.3830   12.8399   13.7567 N.pl3   1  UNL1        0.0000
      3 N           7.2675   11.7049   11.6636 N.pl3   1  UNL1        0.0000
      4 N           4.2029   13.5197   11.6343 N.3     1  UNL1        0.0000
      5 SI          6.5391   14.4422   14.3929 Si      1  UNL1        0.0000
      6 SI          2.7422   13.5745   12.5427 Si      1  UNL1        0.0000
      7 C           7.4150   11.8988   13.9599 C.2     1  UNL1        0.0000
      8 C           7.8716   11.2764   12.8189 C.2     1  UNL1        0.0000
      9 C           7.9116   11.6657   15.3103 C.ar    1  UNL1        0.0000
     10 C           7.0449   11.7818   16.4031 C.ar    1  UNL1        0.0000
     11 C           7.4859   11.5767   17.6939 C.ar    1  UNL1        0.0000
     12 C           8.8117   11.2552   17.9382 C.ar    1  UNL1        0.0000
     13 C           9.6912   11.1653   16.8722 C.ar    1  UNL1        0.0000
     14 C           9.2527   11.3722   15.5785 C.ar    1  UNL1        0.0000
     15 C           8.8543   10.1352   12.7703 C.3     1  UNL1        0.0000
     16 C           7.3923   12.6391    9.5104 C.3     1  UNL1        0.0000
     17 C           7.7943   11.4226   10.3590 C.3     1  UNL1        0.0000
     18 C           5.5728   14.1927    9.7157 C.3     1  UNL1        0.0000
     19 C           4.1840   14.2071   10.3640 C.3     1  UNL1        0.0000
     20 C           8.2729   14.7793   15.1417 C.3     1  UNL1        0.0000
     21 C           5.2499   14.8929   15.7438 C.3     1  UNL1        0.0000
     22 C           6.3405   15.6981   12.9565 C.3     1  UNL1        0.0000
     23 C           2.9774   12.4381   14.0593 C.3     1  UNL1        0.0000
     24 C           2.3225   15.3665   13.1138 C.3     1  UNL1        0.0000
     25 C           1.1851   12.9823   11.5790 C.3     1  UNL1        0.0000
     26 H           6.0105   12.0348   16.2247 H       1  UNL1        0.0000
     27 H           6.7924   11.6645   18.5188 H       1  UNL1        0.0000
     28 H           9.1579   11.0908   18.9480 H       1  UNL1        0.0000
     29 H          10.7337   10.9430   17.0530 H       1  UNL1        0.0000
     30 H           9.9681   11.3495   14.7723 H       1  UNL1        0.0000
     31 H           8.8918    9.6289   13.7311 H       1  UNL1        0.0000
     32 H           9.8593   10.4763   12.5132 H       1  UNL1        0.0000
     33 H           8.5373    9.4131   12.0171 H       1  UNL1        0.0000
     34 H           7.9921   13.5096    9.8175 H       1  UNL1        0.0000
     35 H           7.5268   12.4644    8.4318 H       1  UNL1        0.0000
     36 H           8.8876   11.3079   10.3510 H       1  UNL1        0.0000
     37 H           7.3410   10.5132    9.9203 H       1  UNL1        0.0000
     38 H           6.2571   14.8616   10.2597 H       1  UNL1        0.0000
     39 H           5.5182   14.5098    8.6614 H       1  UNL1        0.0000
     40 H           3.8647   15.2564   10.4691 H       1  UNL1        0.0000
     41 H           3.4764   13.7257    9.6678 H       1  UNL1        0.0000
     42 H           8.4496   15.8447   15.2495 H       1  UNL1        0.0000
     43 H           8.3793   14.3274   16.1216 H       1  UNL1        0.0000
     44 H           9.0587   14.3738   14.5115 H       1  UNL1        0.0000
     45 H           5.2813   15.9598   15.9420 H       1  UNL1        0.0000
     46 H           5.4534   14.3870   16.6825 H       1  UNL1        0.0000
     47 H           4.2377   14.6450   15.4422 H       1  UNL1        0.0000
     48 H           6.3110   16.7178   13.3265 H       1  UNL1        0.0000
     49 H           7.1712   15.6291   12.2567 H       1  UNL1        0.0000
     50 H           5.4157   15.5070   12.4215 H       1  UNL1        0.0000
     51 H           2.3433   12.7491   14.8836 H       1  UNL1        0.0000
     52 H           4.0156   12.4673   14.3913 H       1  UNL1        0.0000
     53 H           2.7165   11.4105   13.8172 H       1  UNL1        0.0000
     54 H           1.4885   15.3712   13.8080 H       1  UNL1        0.0000
     55 H           3.1638   15.8465   13.6042 H       1  UNL1        0.0000
     56 H           2.0375   15.9865   12.2688 H       1  UNL1        0.0000
     57 H           0.2942   13.0463   12.1954 H       1  UNL1        0.0000
     58 H           1.0116   13.5938   10.6985 H       1  UNL1        0.0000
     59 H           1.2851   11.9522   11.2496 H       1  UNL1        0.0000
@<TRIPOS>BOND
     1    35    16    1
     2    39    18    1
     3    16     1    1
     4    16    34    1
     5    16    17    1
     6    41    19    1
     7    18     1    1
     8    18    38    1
     9    18    19    1
    10    37    17    1
    11    36    17    1
    12    17     3    1
    13    19    40    1
    14    19     4    1
    15    58    25    1
    16    59    25    1
    17    25    57    1
    18    25     6    1
    19     4     6    1
    20     3     8    1
    21    33    15    1
    22    49    22    1
    23    56    24    1
    24    50    22    1
    25    32    15    1
    26     6    24    1
    27     6    23    1
    28    15     8    1
    29    15    31    1
    30     8     7    2
    31    22    48    1
    32    22     5    1
    33    24    55    1
    34    24    54    1
    35     2     7    1
    36     2     5    1
    37    53    23    1
    38     7     9    1
    39    23    52    1
    40    23    51    1
    41     5    20    1
    42     5    21    1
    43    44    20    1
    44    30    14    1
    45    20    42    1
    46    20    43    1
    47     9    14   ar
    48     9    10   ar
    49    47    21    1
    50    14    13   ar
    51    21    45    1
    52    21    46    1
    53    26    10    1
    54    10    11   ar
    55    13    29    1
    56    13    12   ar
    57    11    12   ar
    58    11    27    1
    59    12    28    1
