@<TRIPOS>MOLECULE
1,2,3,4,8
 62 62 0 0 0
SMALL
GASTEIGER

@<TRIPOS>ATOM
      1 O           3.7806   10.9549    3.2136 O.3     1  UNL1        0.0000
      2 N           4.8993    8.5455    6.1380 N.pl3   1  UNL1        0.0000
      3 N           5.6716   10.5567    4.8066 N.pl3   1  UNL1        0.0000
      4 N           2.2467    9.4991    4.7950 N.3     1  UNL1        0.0000
      5 SI          4.7724    6.8949    5.6247 Si      1  UNL1        0.0000
      6 SI          1.0445    9.0206    5.9337 Si      1  UNL1        0.0000
      7 C           6.1727    9.0561    6.4824 C.2     1  UNL1        0.0000
      8 C           6.5650   10.1703    5.7620 C.2     1  UNL1        0.0000
      9 C           6.9324    8.4001    7.5241 C.ar    1  UNL1        0.0000
     10 C           8.3352    8.3791    7.5573 C.ar    1  UNL1        0.0000
     11 C           9.0197    7.7454    8.5718 C.ar    1  UNL1        0.0000
     12 C           8.3226    7.1020    9.5875 C.ar    1  UNL1        0.0000
     13 C           6.9296    7.0721    9.5559 C.ar    1  UNL1        0.0000
     14 C           6.2542    7.7044    8.5402 C.ar    1  UNL1        0.0000
     15 C           9.0329    6.4056   10.7014 C.3     1  UNL1        0.0000
     16 C           7.7918   11.0035    6.0256 C.3     1  UNL1        0.0000
     17 C           5.0496   11.1959    2.6351 C.3     1  UNL1        0.0000
     18 C           5.9643   11.5537    3.8160 C.3     1  UNL1        0.0000
     19 C           2.9367   10.0665    2.5088 C.3     1  UNL1        0.0000
     20 C           1.7703    9.7559    3.4550 C.3     1  UNL1        0.0000
     21 C           3.6771    5.8019    6.7597 C.3     1  UNL1        0.0000
     22 C           6.4820    6.0372    5.4902 C.3     1  UNL1        0.0000
     23 C           4.0306    6.8737    3.8553 C.3     1  UNL1        0.0000
     24 C           1.8792    8.9828    7.6503 C.3     1  UNL1        0.0000
     25 C           0.3068    7.2953    5.4974 C.3     1  UNL1        0.0000
     26 C          -0.4674   10.2065    6.0266 C.3     1  UNL1        0.0000
     27 F           8.5920    6.7901   11.9182 F       1  UNL1        0.0000
     28 F          10.3597    6.6070   10.7068 F       1  UNL1        0.0000
     29 F           8.8621    5.0644   10.6688 F       1  UNL1        0.0000
     30 H           8.8990    8.8204    6.7534 H       1  UNL1        0.0000
     31 H          10.0993    7.7375    8.5758 H       1  UNL1        0.0000
     32 H           6.3913    6.5564   10.3375 H       1  UNL1        0.0000
     33 H           5.1762    7.6760    8.5200 H       1  UNL1        0.0000
     34 H           8.1202   10.8789    7.0538 H       1  UNL1        0.0000
     35 H           7.5594   12.0572    5.8708 H       1  UNL1        0.0000
     36 H           8.6115   10.7346    5.3566 H       1  UNL1        0.0000
     37 H           4.9867   12.0050    1.8915 H       1  UNL1        0.0000
     38 H           5.4242   10.2820    2.1487 H       1  UNL1        0.0000
     39 H           5.7140   12.5719    4.1703 H       1  UNL1        0.0000
     40 H           7.0145   11.5435    3.4903 H       1  UNL1        0.0000
     41 H           2.5752   10.5343    1.5788 H       1  UNL1        0.0000
     42 H           3.4858    9.1465    2.2576 H       1  UNL1        0.0000
     43 H           1.0800   10.6158    3.4453 H       1  UNL1        0.0000
     44 H           1.2150    8.8971    3.0454 H       1  UNL1        0.0000
     45 H           3.4278    4.8757    6.2518 H       1  UNL1        0.0000
     46 H           4.1926    5.5341    7.6768 H       1  UNL1        0.0000
     47 H           2.7465    6.2901    7.0284 H       1  UNL1        0.0000
     48 H           6.4137    5.1213    4.9124 H       1  UNL1        0.0000
     49 H           6.8768    5.7793    6.4666 H       1  UNL1        0.0000
     50 H           7.2093    6.6822    5.0062 H       1  UNL1        0.0000
     51 H           3.8808    5.8599    3.4982 H       1  UNL1        0.0000
     52 H           4.6946    7.3744    3.1520 H       1  UNL1        0.0000
     53 H           3.0693    7.3786    3.8504 H       1  UNL1        0.0000
     54 H           1.3623    8.3041    8.3213 H       1  UNL1        0.0000
     55 H           1.8634    9.9690    8.1086 H       1  UNL1        0.0000
     56 H           2.9149    8.6564    7.5568 H       1  UNL1        0.0000
     57 H          -0.2908    6.9068    6.3155 H       1  UNL1        0.0000
     58 H           1.0782    6.5644    5.2755 H       1  UNL1        0.0000
     59 H          -0.3443    7.3598    4.6304 H       1  UNL1        0.0000
     60 H          -1.1796    9.8730    6.7746 H       1  UNL1        0.0000
     61 H          -0.1685   11.2184    6.2844 H       1  UNL1        0.0000
     62 H          -0.9944   10.2498    5.0780 H       1  UNL1        0.0000
@<TRIPOS>BOND
     1    41    19    1
     2    37    17    1
     3    38    17    1
     4    42    19    1
     5    19     1    1
     6    19    20    1
     7    17     1    1
     8    17    18    1
     9    44    20    1
    10    52    23    1
    11    43    20    1
    12    20     4    1
    13    40    18    1
    14    51    23    1
    15    18    39    1
    16    18     3    1
    17    53    23    1
    18    23     5    1
    19    59    25    1
    20     4     6    1
    21     3     8    1
    22    48    22    1
    23    50    22    1
    24    62    26    1
    25    58    25    1
    26    36    16    1
    27    22     5    1
    28    22    49    1
    29    25     6    1
    30    25    57    1
    31     5     2    1
    32     5    21    1
    33     8    16    1
    34     8     7    2
    35    35    16    1
    36     6    26    1
    37     6    24    1
    38    16    34    1
    39    26    61    1
    40    26    60    1
    41     2     7    1
    42    45    21    1
    43     7     9    1
    44    30    10    1
    45    21    47    1
    46    21    46    1
    47     9    10   ar
    48     9    14   ar
    49    56    24    1
    50    10    11   ar
    51    24    55    1
    52    24    54    1
    53    33    14    1
    54    14    13   ar
    55    11    31    1
    56    11    12   ar
    57    13    12   ar
    58    13    32    1
    59    12    15    1
    60    29    15    1
    61    15    28    1
    62    15    27    1
