@<TRIPOS>MOLECULE
1,4
 40 42 0 0 0
SMALL
GASTEIGER

@<TRIPOS>ATOM
      1 S          -0.4801    9.3316   10.5928 S.3     1  UNL1       -0.0551
      2 P          -0.2871    9.5341    8.6196 P.3     1  UNL1        0.0185
      3 O          -1.7805    7.9812    5.8638 O.2     1  UNL1       -0.1686
      4 C          -0.3272    7.8111    8.1050 C.3     1  UNL1        0.1421
      5 H           0.6910    7.4451    8.2845 H       1  UNL1        0.0624
      6 S          -0.5445    7.4353    6.3810 S.O2    1  UNL1        0.0069
      7 O          -0.3553    6.0161    6.2268 O.2     1  UNL1       -0.1686
      8 C           1.3134   10.2969    8.1775 C.ar    1  UNL1       -0.0114
      9 C           2.4325    9.7374    8.7864 C.ar    1  UNL1       -0.0533
     10 H           2.3041    8.9461    9.5138 H       1  UNL1        0.0624
     11 C           3.6950   10.2012    8.4734 C.ar    1  UNL1       -0.0611
     12 H           4.5583    9.7616    8.9495 H       1  UNL1        0.0618
     13 C           3.8452   11.2248    7.5514 C.ar    1  UNL1       -0.0617
     14 H           4.8311   11.5876    7.3018 H       1  UNL1        0.0618
     15 C           2.7308   11.7920    6.9561 C.ar    1  UNL1       -0.0611
     16 H           2.8474   12.5976    6.2463 H       1  UNL1        0.0618
     17 C           1.4627   11.3343    7.2672 C.ar    1  UNL1       -0.0533
     18 H           0.5963   11.7882    6.8083 H       1  UNL1        0.0624
     19 C          -1.5682   10.6232    7.9227 C.ar    1  UNL1       -0.0114
     20 C          -1.7179   10.7986    6.5515 C.ar    1  UNL1       -0.0533
     21 H          -1.0883   10.2557    5.8666 H       1  UNL1        0.0624
     22 C          -2.6955   11.6527    6.0750 C.ar    1  UNL1       -0.0611
     23 H          -2.8218   11.7774    5.0099 H       1  UNL1        0.0618
     24 C          -3.5109   12.3455    6.9564 C.ar    1  UNL1       -0.0617
     25 H          -4.2749   13.0081    6.5771 H       1  UNL1        0.0618
     26 C          -3.3430   12.1922    8.3224 C.ar    1  UNL1       -0.0611
     27 H          -3.9682   12.7401    9.0126 H       1  UNL1        0.0618
     28 C          -2.3729   11.3324    8.8058 C.ar    1  UNL1       -0.0533
     29 H          -2.2306   11.2047    9.8703 H       1  UNL1        0.0624
     30 C           0.8125    8.2538    5.5051 C.ar    1  UNL1        0.0890
     31 C           2.1125    8.0872    5.9448 C.ar    1  UNL1       -0.0369
     32 H           2.3207    7.4452    6.7868 H       1  UNL1        0.0636
     33 C           3.1422    8.7359    5.2845 C.ar    1  UNL1       -0.0600
     34 H           4.1588    8.6114    5.6249 H       1  UNL1        0.0618
     35 C           2.8664    9.5412    4.1910 C.ar    1  UNL1       -0.0616
     36 H           3.6706   10.0512    3.6820 H       1  UNL1        0.0618
     37 C           1.5650    9.6796    3.7378 C.ar    1  UNL1       -0.0600
     38 H           1.3527   10.2889    2.8720 H       1  UNL1        0.0618
     39 C           0.5341    9.0272    4.3944 C.ar    1  UNL1       -0.0369
     40 H          -0.4867    9.0942    4.0484 H       1  UNL1        0.0636
@<TRIPOS>BOND
     1    38    37    1
     2    36    35    1
     3    37    35   ar
     4    37    39   ar
     5    40    39    1
     6    35    33   ar
     7    39    30   ar
     8    23    22    1
     9    33    34    1
    10    33    31   ar
    11    30    31   ar
    12    30     6    1
    13     3     6    2
    14    21    20    1
    15    31    32    1
    16    22    20   ar
    17    22    24   ar
    18     7     6    2
    19    16    15    1
    20     6     4    1
    21    20    19   ar
    22    25    24    1
    23    18    17    1
    24    15    17   ar
    25    15    13   ar
    26    24    26   ar
    27    17     8   ar
    28    14    13    1
    29    13    11   ar
    30    19     2    1
    31    19    28   ar
    32     4     5    1
    33     4     2    1
    34     8     2    1
    35     8     9   ar
    36    26    28   ar
    37    26    27    1
    38    11     9   ar
    39    11    12    1
    40     2     1    1
    41     9    10    1
    42    28    29    1
