@<TRIPOS>MOLECULE
1,6
 21 20 0 0 0
SMALL
GASTEIGER

@<TRIPOS>ATOM
      1 S          -2.3156    1.0586    7.2039 S.3     1  UNL1        0.0000
      2 SI         -1.7870    6.0538    8.3664 Si      1  UNL1        0.0000
      3 C          -2.8918    1.1487    8.8272 C.2     1  UNL1        0.0000
      4 C          -3.0198    2.2359    9.6170 C.2     1  UNL1        0.0000
      5 C          -2.7197    3.6246    9.3548 C.2     1  UNL1        0.0000
      6 C          -1.9580    4.1723    8.3766 C.2     1  UNL1        0.0000
      7 C          -2.2932    6.9222   10.0002 C.3     1  UNL1        0.0000
      8 C           0.0802    6.4669    8.1074 C.3     1  UNL1        0.0000
      9 C          -2.8354    6.8948    6.9933 C.3     1  UNL1        0.0000
     10 H          -3.2537    0.1946    9.1947 H       1  UNL1        0.0000
     11 H          -3.4840    2.0551   10.5820 H       1  UNL1        0.0000
     12 H          -3.2200    4.2688   10.0832 H       1  UNL1        0.0000
     13 H          -3.3650    6.8613   10.1589 H       1  UNL1        0.0000
     14 H          -1.8073    6.4691   10.8591 H       1  UNL1        0.0000
     15 H          -2.0253    7.9741    9.9884 H       1  UNL1        0.0000
     16 H           0.5863    6.5914    9.0601 H       1  UNL1        0.0000
     17 H           0.6008    5.6823    7.5545 H       1  UNL1        0.0000
     18 H           0.2018    7.3974    7.5618 H       1  UNL1        0.0000
     19 H          -2.5892    6.5402    5.9980 H       1  UNL1        0.0000
     20 H          -3.8927    6.7069    7.1530 H       1  UNL1        0.0000
     21 H          -2.6904    7.9709    7.0056 H       1  UNL1        0.0000
@<TRIPOS>BOND
     1    19     9    1
     2     9    21    1
     3     9    20    1
     4     9     2    1
     5     1     3    1
     6    17     8    1
     7    18     8    1
     8     8     2    1
     9     8    16    1
    10     2     6    1
    11     2     7    1
    12     6     5    2
    13     3    10    1
    14     3     4    2
    15     5     4    1
    16     5    12    1
    17     4    11    1
    18    15     7    1
    19     7    13    1
    20     7    14    1
