@<TRIPOS>MOLECULE
1,6
 40 42 0 0 0
SMALL
GASTEIGER

@<TRIPOS>ATOM
      1 S           8.2174    8.6041    1.0918 S.3     1  UNL1       -0.0551
      2 S           8.7460    9.0237    5.6763 S.O2    1  UNL1        0.0069
      3 P           7.4021    8.6319    2.9168 P.3     1  UNL1        0.0185
      4 O           9.8536    9.7911    6.1834 O.2     1  UNL1       -0.1686
      5 O           8.6544    7.6551    6.1354 O.2     1  UNL1       -0.1686
      6 C           8.8187    9.1445    3.8977 C.3     1  UNL1        0.1421
      7 H           8.8427   10.2370    3.7633 H       1  UNL1        0.0624
      8 C           6.0564    9.8597    2.9926 C.ar    1  UNL1       -0.0114
      9 C           6.3349   11.1108    2.4534 C.ar    1  UNL1       -0.0533
     10 H           7.2872   11.2790    1.9668 H       1  UNL1        0.0624
     11 C           5.3896   12.1155    2.5244 C.ar    1  UNL1       -0.0611
     12 H           5.6085   13.0850    2.1039 H       1  UNL1        0.0618
     13 C           4.1677   11.8717    3.1311 C.ar    1  UNL1       -0.0617
     14 H           3.4261   12.6548    3.1853 H       1  UNL1        0.0618
     15 C           3.8901   10.6234    3.6643 C.ar    1  UNL1       -0.0611
     16 H           2.9349   10.4342    4.1310 H       1  UNL1        0.0618
     17 C           4.8329    9.6136    3.6013 C.ar    1  UNL1       -0.0533
     18 H           4.6195    8.6390    4.0176 H       1  UNL1        0.0624
     19 C           6.5499    7.0519    3.2376 C.ar    1  UNL1       -0.0114
     20 C           6.6165    6.3051    4.4053 C.ar    1  UNL1       -0.0533
     21 H           7.2447    6.6275    5.2219 H       1  UNL1        0.0624
     22 C           5.8859    5.1308    4.5007 C.ar    1  UNL1       -0.0611
     23 H           5.9424    4.5437    5.4058 H       1  UNL1        0.0618
     24 C           5.0908    4.7076    3.4488 C.ar    1  UNL1       -0.0617
     25 H           4.5270    3.7902    3.5330 H       1  UNL1        0.0618
     26 C           5.0202    5.4596    2.2855 C.ar    1  UNL1       -0.0611
     27 H           4.4018    5.1321    1.4631 H       1  UNL1        0.0618
     28 C           5.7475    6.6287    2.1784 C.ar    1  UNL1       -0.0533
     29 H           5.7135    7.2220    1.2732 H       1  UNL1        0.0624
     30 C           7.2214    9.8738    6.1257 C.ar    1  UNL1        0.0890
     31 C           7.1239   11.2259    5.8531 C.ar    1  UNL1       -0.0369
     32 H           7.9677   11.7429    5.4233 H       1  UNL1        0.0636
     33 C           5.9505   11.8941    6.1556 C.ar    1  UNL1       -0.0600
     34 H           5.8625   12.9492    5.9464 H       1  UNL1        0.0618
     35 C           4.8916   11.2069    6.7287 C.ar    1  UNL1       -0.0616
     36 H           3.9783   11.7311    6.9674 H       1  UNL1        0.0618
     37 C           5.0026    9.8543    7.0055 C.ar    1  UNL1       -0.0600
     38 H           4.1796    9.3240    7.4611 H       1  UNL1        0.0618
     39 C           6.1746    9.1815    6.7001 C.ar    1  UNL1       -0.0369
     40 H           6.2950    8.1313    6.9158 H       1  UNL1        0.0636
@<TRIPOS>BOND
     1     1     3    1
     2    29    28    1
     3    27    26    1
     4    10     9    1
     5    12    11    1
     6    28    26   ar
     7    28    19   ar
     8    26    24   ar
     9     9    11   ar
    10     9     8   ar
    11    11    13   ar
    12     3     8    1
    13     3    19    1
    14     3     6    1
    15     8    17   ar
    16    13    14    1
    17    13    15   ar
    18    19    20   ar
    19    24    25    1
    20    24    22   ar
    21    17    15   ar
    22    17    18    1
    23    15    16    1
    24     7     6    1
    25     6     2    1
    26    20    22   ar
    27    20    21    1
    28    22    23    1
    29    32    31    1
    30     2    30    1
    31     2     5    2
    32     2     4    2
    33    31    30   ar
    34    31    33   ar
    35    34    33    1
    36    30    39   ar
    37    33    35   ar
    38    39    40    1
    39    39    37   ar
    40    35    36    1
    41    35    37   ar
    42    37    38    1
