@<TRIPOS>MOLECULE
1,2
 19 18 0 0 0
SMALL
GASTEIGER

@<TRIPOS>ATOM
      1 S          12.9351    8.3316    6.1938 S.2     1  UNL1        0.0000
      2 C          11.5586    8.9161    5.5274 C.2     1  UNL1        0.0000
      3 SI         11.3205   10.7806    5.5180 Si      1  UNL1        0.0000
      4 C          10.9669   11.3821    7.2991 C.3     1  UNL1        0.0000
      5 C          12.9009   11.6454    4.8950 C.3     1  UNL1        0.0000
      6 O          10.0424   10.9153    4.5207 O.3     1  UNL1        0.0000
      7 C           9.3292   12.0554    4.1255 C.3     1  UNL1        0.0000
      8 C           8.2713   11.6532    3.1098 C.3     1  UNL1        0.0000
      9 H          11.7185   11.0142    7.9910 H       1  UNL1        0.0000
     10 H           9.9964   11.0410    7.6512 H       1  UNL1        0.0000
     11 H          10.9758   12.4676    7.3526 H       1  UNL1        0.0000
     12 H          13.7698   11.2931    5.4419 H       1  UNL1        0.0000
     13 H          12.8418   12.7221    5.0291 H       1  UNL1        0.0000
     14 H          13.0760   11.4481    3.8412 H       1  UNL1        0.0000
     15 H           8.8622   12.5109    5.0072 H       1  UNL1        0.0000
     16 H          10.0208   12.7886    3.6940 H       1  UNL1        0.0000
     17 H           7.6708   12.5145    2.8301 H       1  UNL1        0.0000
     18 H           7.6279   10.8870    3.5337 H       1  UNL1        0.0000
     19 H           8.7444   11.2444    2.2212 H       1  UNL1        0.0000
@<TRIPOS>BOND
     1    19     8    1
     2    17     8    1
     3     8    18    1
     4     8     7    1
     5    16     7    1
     6    14     5    1
     7     7     6    1
     8     7    15    1
     9     6     3    1
    10     5    13    1
    11     5    12    1
    12     5     3    1
    13     3     2    1
    14     3     4    1
    15     2     1    2
    16     4    11    1
    17     4    10    1
    18     4     9    1
