@<TRIPOS>MOLECULE
1,8
 50 52 0 0 0
SMALL
GASTEIGER

@<TRIPOS>ATOM
      1 S          -3.7417   11.0159   12.2858 S.3     1  UNL1       -0.0511
      2 C          -4.8770   11.0378   10.9420 C.ar    1  UNL1        0.0308
      3 C          -4.5222   10.5041    9.7005 C.ar    1  UNL1       -0.0029
      4 C          -5.4107   10.6078    8.6401 C.ar    1  UNL1       -0.0529
      5 C          -6.6336   11.2375    8.7974 C.ar    1  UNL1       -0.0608
      6 C          -6.9843   11.7646   10.0288 C.ar    1  UNL1       -0.0566
      7 C          -6.1163   11.6696   11.1056 C.ar    1  UNL1       -0.0204
      8 C          -6.4745   12.2135   12.4393 C.3     1  UNL1        0.0415
      9 C          -7.4131   11.5481   13.2450 C.3     1  UNL1        0.0109
     10 C          -7.7255   12.0788   14.4897 C.2     1  UNL1       -0.0731
     11 C          -7.1595   13.2648   14.9430 C.2     1  UNL1       -0.0538
     12 C          -6.2893   13.9508   14.1060 C.2     1  UNL1       -0.0592
     13 C          -5.9305   13.4412   12.8633 C.2     1  UNL1       -0.0599
     14 C          -5.0244   14.2174   11.9532 C.3     1  UNL1       -0.0426
     15 C          -8.1333   10.3337   12.7399 C.3     1  UNL1       -0.0541
     16 C          -7.4975   13.7799   16.3087 C.3     1  UNL1       -0.0400
     17 C          -3.2137    9.8355    9.5191 C.ar    1  UNL1       -0.0110
     18 C          -2.1246   10.5637    9.0433 C.ar    1  UNL1       -0.0422
     19 C          -0.9091    9.9214    8.8637 C.ar    1  UNL1       -0.0553
     20 C          -0.7562    8.5737    9.1508 C.ar    1  UNL1       -0.0499
     21 C          -1.8496    7.8682    9.6334 C.ar    1  UNL1       -0.0553
     22 C          -3.0774    8.4812    9.8234 C.ar    1  UNL1       -0.0422
     23 C          -2.2713   12.0278    8.7547 C.3     1  UNL1       -0.0391
     24 C           0.5558    7.8806    8.9330 C.3     1  UNL1       -0.0397
     25 C          -4.2447    7.7133   10.3674 C.3     1  UNL1       -0.0391
     26 H          -5.1330   10.1882    7.6833 H       1  UNL1        0.0624
     27 H          -7.3136   11.3164    7.9622 H       1  UNL1        0.0618
     28 H          -7.9355   12.2599   10.1611 H       1  UNL1        0.0621
     29 H          -8.4463   11.5733   15.1126 H       1  UNL1        0.0581
     30 H          -5.8899   14.9064   14.4158 H       1  UNL1        0.0620
     31 H          -5.4691   14.3126   10.9634 H       1  UNL1        0.0275
     32 H          -4.8320   15.2093   12.3537 H       1  UNL1        0.0275
     33 H          -4.0712   13.7004   11.8362 H       1  UNL1        0.0275
     34 H          -8.3663    9.6611   13.5590 H       1  UNL1        0.0239
     35 H          -9.0689   10.6313   12.2647 H       1  UNL1        0.0239
     36 H          -7.5385    9.8020   12.0027 H       1  UNL1        0.0239
     37 H          -7.0972   14.7791   16.4624 H       1  UNL1        0.0277
     38 H          -8.5758   13.8084   16.4553 H       1  UNL1        0.0277
     39 H          -7.0742   13.1146   17.0612 H       1  UNL1        0.0277
     40 H          -0.0633   10.4859    8.4958 H       1  UNL1        0.0623
     41 H          -1.7402    6.8183    9.8684 H       1  UNL1        0.0623
     42 H          -3.0622   12.2010    8.0260 H       1  UNL1        0.0278
     43 H          -2.5412   12.5597    9.6664 H       1  UNL1        0.0278
     44 H          -1.3422   12.4422    8.3712 H       1  UNL1        0.0278
     45 H           1.3637    8.6006    8.8279 H       1  UNL1        0.0278
     46 H           0.7827    7.2159    9.7644 H       1  UNL1        0.0278
     47 H           0.5152    7.2780    8.0249 H       1  UNL1        0.0278
     48 H          -5.1226    7.8457    9.7361 H       1  UNL1        0.0278
     49 H          -4.0137    6.6530   10.4340 H       1  UNL1        0.0278
     50 H          -4.4947    8.0770   11.3639 H       1  UNL1        0.0278
@<TRIPOS>BOND
     1    26     4    1
     2    27     5    1
     3    47    24    1
     4    42    23    1
     5    44    23    1
     6    40    19    1
     7     4     5   ar
     8     4     3   ar
     9    23    18    1
    10    23    43    1
    11     5     6   ar
    12    45    24    1
    13    19    18   ar
    14    19    20   ar
    15    24    20    1
    16    24    46    1
    17    18    17   ar
    18    20    21   ar
    19    17     3    1
    20    17    22   ar
    21    21    22   ar
    22    21    41    1
    23     3     2   ar
    24    48    25    1
    25    22    25    1
    26     6    28    1
    27     6     7   ar
    28    25    49    1
    29    25    50    1
    30     2     7   ar
    31     2     1    1
    32    31    14    1
    33     7     8    1
    34    33    14    1
    35    14    32    1
    36    14    13    1
    37    36    15    1
    38    35    15    1
    39     8    13    1
    40     8     9    1
    41    15     9    1
    42    15    34    1
    43    13    12    2
    44     9    10    1
    45    12    30    1
    46    12    11    1
    47    10    11    2
    48    10    29    1
    49    11    16    1
    50    16    38    1
    51    16    37    1
    52    16    39    1
