@<TRIPOS>MOLECULE
1,4
 59 63 0 0 0
SMALL
GASTEIGER

@<TRIPOS>ATOM
      1 S           3.3079   12.0817    5.5103 S.3     1  UNL1        0.0000
      2 P           4.3805   12.5022    3.8648 P.3     1  UNL1        0.0000
      3 SI          6.1082   10.7674    1.9596 Si      1  UNL1        0.0000
      4 C           5.5792   11.2756    3.6518 C.3     1  UNL1        0.0000
      5 C           5.0932   14.1619    4.2061 C.ar    1  UNL1        0.0000
      6 C           6.0590   14.1705    5.2063 C.ar    1  UNL1        0.0000
      7 H           6.3089   13.2335    5.6905 H       1  UNL1        0.0000
      8 C           6.6702   15.3511    5.5774 C.ar    1  UNL1        0.0000
      9 H           7.4163   15.3497    6.3582 H       1  UNL1        0.0000
     10 C           6.3174   16.5360    4.9504 C.ar    1  UNL1        0.0000
     11 H           6.7953   17.4628    5.2340 H       1  UNL1        0.0000
     12 C           5.3424   16.5342    3.9673 C.ar    1  UNL1        0.0000
     13 H           5.0569   17.4599    3.4877 H       1  UNL1        0.0000
     14 C           4.7242   15.3528    3.5951 C.ar    1  UNL1        0.0000
     15 H           3.9538   15.3621    2.8373 H       1  UNL1        0.0000
     16 C           3.2549   12.8801    2.4714 C.ar    1  UNL1        0.0000
     17 C           1.8892   12.6489    2.5445 C.ar    1  UNL1        0.0000
     18 H           1.4597   12.3139    3.4787 H       1  UNL1        0.0000
     19 C           1.0884   12.8787    1.4397 C.ar    1  UNL1        0.0000
     20 H           0.0242   12.6999    1.5009 H       1  UNL1        0.0000
     21 C           1.6471   13.3446    0.2622 C.ar    1  UNL1        0.0000
     22 H           1.0209   13.5274   -0.5988 H       1  UNL1        0.0000
     23 C           3.0111   13.5816    0.1875 C.ar    1  UNL1        0.0000
     24 H           3.4476   13.9489   -0.7298 H       1  UNL1        0.0000
     25 C           3.8153   13.3394    1.2830 C.ar    1  UNL1        0.0000
     26 H           4.8821   13.5093    1.2318 H       1  UNL1        0.0000
     27 C           7.6276   11.7145    1.3115 C.ar    1  UNL1        0.0000
     28 C           7.8283   13.0475    1.6485 C.ar    1  UNL1        0.0000
     29 H           7.1103   13.5427    2.2891 H       1  UNL1        0.0000
     30 C           8.9321   13.7446    1.1923 C.ar    1  UNL1        0.0000
     31 H           9.0673   14.7819    1.4656 H       1  UNL1        0.0000
     32 C           9.8645   13.1108    0.3882 C.ar    1  UNL1        0.0000
     33 H          10.7292   13.6507    0.0287 H       1  UNL1        0.0000
     34 C           9.6868   11.7792    0.0510 C.ar    1  UNL1        0.0000
     35 H          10.4151   11.2782   -0.5722 H       1  UNL1        0.0000
     36 C           8.5790   11.0910    0.5119 C.ar    1  UNL1        0.0000
     37 H           8.4460   10.0497    0.2510 H       1  UNL1        0.0000
     38 C           4.8767   10.6757    0.5031 C.ar    1  UNL1        0.0000
     39 C           5.1878   11.1126   -0.7789 C.ar    1  UNL1        0.0000
     40 H           6.1735   11.5102   -0.9760 H       1  UNL1        0.0000
     41 C           4.2554   11.0526   -1.7995 C.ar    1  UNL1        0.0000
     42 H           4.5166   11.3979   -2.7903 H       1  UNL1        0.0000
     43 C           2.9870   10.5555   -1.5547 C.ar    1  UNL1        0.0000
     44 H           2.2561   10.5127   -2.3496 H       1  UNL1        0.0000
     45 C           2.6576   10.1155   -0.2835 C.ar    1  UNL1        0.0000
     46 H           1.6674    9.7295   -0.0829 H       1  UNL1        0.0000
     47 C           3.5984   10.1775    0.7258 C.ar    1  UNL1        0.0000
     48 H           3.3404    9.8452    1.7256 H       1  UNL1        0.0000
     49 C           6.6412    8.9552    2.2649 C.ar    1  UNL1        0.0000
     50 C           7.5946    8.6840    3.2455 C.ar    1  UNL1        0.0000
     51 H           8.0539    9.5102    3.7747 H       1  UNL1        0.0000
     52 C           8.0320    7.3918    3.4846 C.ar    1  UNL1        0.0000
     53 H           8.7899    7.2042    4.2323 H       1  UNL1        0.0000
     54 C           7.5120    6.3387    2.7499 C.ar    1  UNL1        0.0000
     55 H           7.8643    5.3305    2.9195 H       1  UNL1        0.0000
     56 C           6.5518    6.5871    1.7836 C.ar    1  UNL1        0.0000
     57 H           6.1456    5.7695    1.2022 H       1  UNL1        0.0000
     58 C           6.1254    7.8833    1.5470 C.ar    1  UNL1        0.0000
     59 H           5.3921    8.0682    0.7731 H       1  UNL1        0.0000
@<TRIPOS>BOND
     1    42    41    1
     2    44    43    1
     3    41    43   ar
     4    41    39   ar
     5    43    45   ar
     6    40    39    1
     7    39    38   ar
     8    24    23    1
     9    22    21    1
    10    35    34    1
    11    45    46    1
    12    45    47   ar
    13    33    32    1
    14    34    32   ar
    15    34    36   ar
    16    23    21   ar
    17    23    25   ar
    18    37    36    1
    19    21    19   ar
    20    32    30   ar
    21    38    47   ar
    22    38     3    1
    23    36    27   ar
    24    47    48    1
    25    59    58    1
    26    30    31    1
    27    30    28   ar
    28    57    56    1
    29    26    25    1
    30    25    16   ar
    31    27    28   ar
    32    27     3    1
    33    19    20    1
    34    19    17   ar
    35    58    56   ar
    36    58    49   ar
    37    28    29    1
    38    56    54   ar
    39     3    49    1
    40     3     4    1
    41    49    50   ar
    42    16    17   ar
    43    16     2    1
    44    17    18    1
    45    54    55    1
    46    54    52   ar
    47    15    14    1
    48    50    52   ar
    49    50    51    1
    50    52    53    1
    51    13    12    1
    52    14    12   ar
    53    14     5   ar
    54     4     2    1
    55     2     5    1
    56     2     1    1
    57    12    10   ar
    58     5     6   ar
    59    10    11    1
    60    10     8   ar
    61     6     8   ar
    62     6     7    1
    63     8     9    1
