@<TRIPOS>MOLECULE
1,4
 59 63 0 0 0
SMALL
GASTEIGER

@<TRIPOS>ATOM
      1 S           8.8972    2.5598    7.4131 S.3     1  UNL1        0.0000
      2 P           8.2084    2.2067    9.2749 P.3     1  UNL1        0.0000
      3 SI          6.3211    3.8956   11.2960 Si      1  UNL1        0.0000
      4 C           7.4233    3.6331    9.8430 C.3     1  UNL1        0.0000
      5 C           7.3410    0.5833    9.1633 C.ar    1  UNL1        0.0000
      6 C           7.3667   -0.3313   10.2107 C.ar    1  UNL1        0.0000
      7 H           7.9729   -0.1305   11.0844 H       1  UNL1        0.0000
      8 C           6.6357   -1.5019   10.1243 C.ar    1  UNL1        0.0000
      9 H           6.6643   -2.2133   10.9376 H       1  UNL1        0.0000
     10 C           5.8706   -1.7646    8.9995 C.ar    1  UNL1        0.0000
     11 H           5.3015   -2.6808    8.9357 H       1  UNL1        0.0000
     12 C           5.8458   -0.8565    7.9536 C.ar    1  UNL1        0.0000
     13 H           5.2633   -1.0662    7.0678 H       1  UNL1        0.0000
     14 C           6.5743    0.3146    8.0356 C.ar    1  UNL1        0.0000
     15 H           6.5785    1.0182    7.2119 H       1  UNL1        0.0000
     16 C           9.6661    1.7109   10.2840 C.ar    1  UNL1        0.0000
     17 C           9.6198    1.8566   11.6648 C.ar    1  UNL1        0.0000
     18 H           8.7220    2.2407   12.1256 H       1  UNL1        0.0000
     19 C          10.7142    1.5141   12.4370 C.ar    1  UNL1        0.0000
     20 H          10.6680    1.6289   13.5106 H       1  UNL1        0.0000
     21 C          11.8632    1.0285   11.8333 C.ar    1  UNL1        0.0000
     22 H          12.7198    0.7635   12.4363 H       1  UNL1        0.0000
     23 C          11.9127    0.8819   10.4567 C.ar    1  UNL1        0.0000
     24 H          12.8075    0.5007    9.9854 H       1  UNL1        0.0000
     25 C          10.8181    1.2214    9.6822 C.ar    1  UNL1        0.0000
     26 H          10.8461    1.1101    8.6070 H       1  UNL1        0.0000
     27 C           4.7194    2.8922   11.5532 C.ar    1  UNL1        0.0000
     28 C           3.4759    3.5006   11.6948 C.ar    1  UNL1        0.0000
     29 H           3.4119    4.5802   11.7067 H       1  UNL1        0.0000
     30 C           2.3220    2.7485   11.8258 C.ar    1  UNL1        0.0000
     31 H           1.3658    3.2418   11.9380 H       1  UNL1        0.0000
     32 C           2.3883    1.3653   11.8116 C.ar    1  UNL1        0.0000
     33 H           1.4867    0.7769   11.9078 H       1  UNL1        0.0000
     34 C           3.6176    0.7422   11.6776 C.ar    1  UNL1        0.0000
     35 H           3.6827   -0.3370   11.6678 H       1  UNL1        0.0000
     36 C           4.7652    1.5031   11.5538 C.ar    1  UNL1        0.0000
     37 H           5.7209    1.0110   11.4529 H       1  UNL1        0.0000
     38 C           7.1810    3.9399   12.9997 C.ar    1  UNL1        0.0000
     39 C           8.3811    4.6294   13.1499 C.ar    1  UNL1        0.0000
     40 H           8.8023    5.1406   12.2941 H       1  UNL1        0.0000
     41 C           9.0510    4.6555   14.3586 C.ar    1  UNL1        0.0000
     42 H           9.9820    5.1978   14.4513 H       1  UNL1        0.0000
     43 C           8.5301    3.9805   15.4504 C.ar    1  UNL1        0.0000
     44 H           9.0507    3.9956   16.3976 H       1  UNL1        0.0000
     45 C           7.3416    3.2830   15.3195 C.ar    1  UNL1        0.0000
     46 H           6.9322    2.7505   16.1668 H       1  UNL1        0.0000
     47 C           6.6772    3.2650   14.1054 C.ar    1  UNL1        0.0000
     48 H           5.7512    2.7147   14.0114 H       1  UNL1        0.0000
     49 C           5.7545    5.6863   10.9100 C.ar    1  UNL1        0.0000
     50 C           4.9182    5.9083    9.8148 C.ar    1  UNL1        0.0000
     51 H           4.5133    5.0557    9.2762 H       1  UNL1        0.0000
     52 C           4.4848    7.1842    9.4862 C.ar    1  UNL1        0.0000
     53 H           3.8127    7.3332    8.6522 H       1  UNL1        0.0000
     54 C           4.8968    8.2689   10.2430 C.ar    1  UNL1        0.0000
     55 H           4.5508    9.2639    9.9996 H       1  UNL1        0.0000
     56 C           5.7337    8.0680   11.3275 C.ar    1  UNL1        0.0000
     57 H           6.0497    8.9102   11.9287 H       1  UNL1        0.0000
     58 C           6.1524    6.7885   11.6540 C.ar    1  UNL1        0.0000
     59 H           6.7840    6.6420   12.5188 H       1  UNL1        0.0000
@<TRIPOS>BOND
     1    13    12    1
     2    15    14    1
     3     1     2    1
     4    12    14   ar
     5    12    10   ar
     6    14     5   ar
     7    26    25    1
     8    53    52    1
     9    11    10    1
    10    10     8   ar
    11     5     2    1
    12     5     6   ar
    13     2     4    1
    14     2    16    1
    15    51    50    1
    16    52    50   ar
    17    52    54   ar
    18    25    16   ar
    19    25    23   ar
    20    50    49   ar
    21     4     3    1
    22    24    23    1
    23    55    54    1
    24     8     6   ar
    25     8     9    1
    26     6     7    1
    27    54    56   ar
    28    16    17   ar
    29    23    21   ar
    30    49     3    1
    31    49    58   ar
    32     3    27    1
    33     3    38    1
    34    56    58   ar
    35    56    57    1
    36    37    36    1
    37    27    36   ar
    38    27    28   ar
    39    36    34   ar
    40    58    59    1
    41    17    18    1
    42    17    19   ar
    43    35    34    1
    44    34    32   ar
    45    28    29    1
    46    28    30   ar
    47    32    30   ar
    48    32    33    1
    49    30    31    1
    50    21    22    1
    51    21    19   ar
    52    40    39    1
    53    19    20    1
    54    38    39   ar
    55    38    47   ar
    56    39    41   ar
    57    48    47    1
    58    47    45   ar
    59    41    42    1
    60    41    43   ar
    61    45    43   ar
    62    45    46    1
    63    43    44    1
