@<TRIPOS>MOLECULE
1,4
 38 39 0 0 0
SMALL
GASTEIGER

@<TRIPOS>ATOM
      1 S           1.0266   13.2821    4.6244 S.3     1  UNL1        0.0000
      2 P           0.7503   11.3626    4.1032 P.3     1  UNL1        0.0000
      3 SI          0.8752    8.5360    5.5492 Si      1  UNL1        0.0000
      4 C           0.8124   10.3986    5.5370 C.3     1  UNL1        0.0000
      5 C           1.5697    7.5417    4.0629 C.3     1  UNL1        0.0000
      6 H           1.9142    6.5605    4.3771 H       1  UNL1        0.0000
      7 H           2.4024    8.0502    3.5873 H       1  UNL1        0.0000
      8 H           0.8068    7.3919    3.3048 H       1  UNL1        0.0000
      9 C          -0.8365    7.7058    5.9005 C.3     1  UNL1        0.0000
     10 H          -1.4499    7.6090    5.0091 H       1  UNL1        0.0000
     11 H          -1.4121    8.2604    6.6368 H       1  UNL1        0.0000
     12 H          -0.6879    6.7035    6.2915 H       1  UNL1        0.0000
     13 C           1.9048    8.1091    7.1233 C.3     1  UNL1        0.0000
     14 H           1.4502    7.2943    7.6776 H       1  UNL1        0.0000
     15 H           1.9680    8.9724    7.7904 H       1  UNL1        0.0000
     16 H           2.9168    7.8043    6.8784 H       1  UNL1        0.0000
     17 C           1.8929   11.0462    2.6987 C.ar    1  UNL1        0.0000
     18 C           1.5947   10.0378    1.7884 C.ar    1  UNL1        0.0000
     19 H           0.6579    9.5043    1.8766 H       1  UNL1        0.0000
     20 C           2.4841    9.7370    0.7751 C.ar    1  UNL1        0.0000
     21 H           2.2494    8.9549    0.0670 H       1  UNL1        0.0000
     22 C           3.6748   10.4391    0.6639 C.ar    1  UNL1        0.0000
     23 H           4.3672   10.2031   -0.1313 H       1  UNL1        0.0000
     24 C           3.9723   11.4460    1.5675 C.ar    1  UNL1        0.0000
     25 H           4.8947   12.0016    1.4800 H       1  UNL1        0.0000
     26 C           3.0875   11.7452    2.5875 C.ar    1  UNL1        0.0000
     27 H           3.3070   12.5373    3.2913 H       1  UNL1        0.0000
     28 C          -0.8272   11.3442    3.1472 C.ar    1  UNL1        0.0000
     29 C          -1.7441   10.3151    3.2929 C.ar    1  UNL1        0.0000
     30 H          -1.5219    9.5096    3.9764 H       1  UNL1        0.0000
     31 C          -2.9205   10.3280    2.5642 C.ar    1  UNL1        0.0000
     32 H          -3.6320    9.5214    2.6742 H       1  UNL1        0.0000
     33 C          -3.1869   11.3735    1.6955 C.ar    1  UNL1        0.0000
     34 H          -4.1082   11.3849    1.1309 H       1  UNL1        0.0000
     35 C          -2.2721   12.4046    1.5502 C.ar    1  UNL1        0.0000
     36 H          -2.4793   13.2204    0.8724 H       1  UNL1        0.0000
     37 C          -1.0932   12.3895    2.2711 C.ar    1  UNL1        0.0000
     38 H          -0.3704   13.1879    2.1686 H       1  UNL1        0.0000
@<TRIPOS>BOND
     1    23    22    1
     2    21    20    1
     3    22    20   ar
     4    22    24   ar
     5    20    18   ar
     6    36    35    1
     7    34    33    1
     8    25    24    1
     9    35    33   ar
    10    35    37   ar
    11    24    26   ar
    12    33    31   ar
    13    18    19    1
    14    18    17   ar
    15    38    37    1
    16    37    28   ar
    17    31    32    1
    18    31    29   ar
    19    26    17   ar
    20    26    27    1
    21    17     2    1
    22    28    29   ar
    23    28     2    1
    24    29    30    1
    25     8     5    1
    26     7     5    1
    27     5     6    1
    28     5     3    1
    29     2     1    1
    30     2     4    1
    31    10     9    1
    32     4     3    1
    33     3     9    1
    34     3    13    1
    35     9    12    1
    36     9    11    1
    37    16    13    1
    38    13    14    1
    39    13    15    1
