@<TRIPOS>MOLECULE
1,4
 39 40 0 0 0
SMALL
GASTEIGER

@<TRIPOS>ATOM
      1 S          10.3010   -1.1817    5.9262 S.3     1  UNL1        0.0000
      2 P          10.9428    0.5491    6.6621 P.3     1  UNL1        0.0000
      3 SI         12.6117    3.0718    5.8579 Si      1  UNL1        0.0000
      4 C          12.1244    1.2639    5.5689 C.3     1  UNL1        0.0000
      5 H          13.0169    0.6172    5.6867 H       1  UNL1        0.0000
      6 C          14.0154    3.3807    4.5989 C.3     1  UNL1        0.0000
      7 H          14.9084    2.8083    4.8318 H       1  UNL1        0.0000
      8 H          14.2956    4.4281    4.5803 H       1  UNL1        0.0000
      9 H          13.6924    3.1038    3.5979 H       1  UNL1        0.0000
     10 C          11.1494    4.2255    5.4338 C.3     1  UNL1        0.0000
     11 H          10.6097    3.8478    4.5681 H       1  UNL1        0.0000
     12 H          11.5155    5.2179    5.1908 H       1  UNL1        0.0000
     13 H          10.4440    4.3266    6.2523 H       1  UNL1        0.0000
     14 C          13.2668    3.5497    7.5973 C.3     1  UNL1        0.0000
     15 H          12.6083    3.2134    8.3932 H       1  UNL1        0.0000
     16 H          13.3615    4.6280    7.6833 H       1  UNL1        0.0000
     17 H          14.2477    3.1228    7.7859 H       1  UNL1        0.0000
     18 C          11.4496    0.2002    8.3859 C.ar    1  UNL1        0.0000
     19 C          10.4981   -0.2413    9.2991 C.ar    1  UNL1        0.0000
     20 H           9.4641   -0.3209    8.9909 H       1  UNL1        0.0000
     21 C          10.8822   -0.5793   10.5821 C.ar    1  UNL1        0.0000
     22 H          10.1435   -0.9197   11.2929 H       1  UNL1        0.0000
     23 C          12.2144   -0.4857   10.9556 C.ar    1  UNL1        0.0000
     24 H          12.5118   -0.7516   11.9593 H       1  UNL1        0.0000
     25 C          13.1638   -0.0577   10.0432 C.ar    1  UNL1        0.0000
     26 H          14.2025    0.0093   10.3324 H       1  UNL1        0.0000
     27 C          12.7834    0.2826    8.7571 C.ar    1  UNL1        0.0000
     28 H          13.5167    0.6190    8.0377 H       1  UNL1        0.0000
     29 C           9.5017    1.6401    6.8972 C.ar    1  UNL1        0.0000
     30 C           9.4703    2.5659    7.9339 C.ar    1  UNL1        0.0000
     31 H          10.3256    2.6646    8.5878 H       1  UNL1        0.0000
     32 C           8.3491    3.3514    8.1238 C.ar    1  UNL1        0.0000
     33 H           8.3279    4.0710    8.9293 H       1  UNL1        0.0000
     34 C           7.2523    3.2114    7.2874 C.ar    1  UNL1        0.0000
     35 H           6.3750    3.8213    7.4443 H       1  UNL1        0.0000
     36 C           7.2771    2.2835    6.2603 C.ar    1  UNL1        0.0000
     37 H           6.4209    2.1557    5.6157 H       1  UNL1        0.0000
     38 C           8.3997    1.4991    6.0650 C.ar    1  UNL1        0.0000
     39 H           8.4104    0.7509    5.2770 H       1  UNL1        0.0000
@<TRIPOS>BOND
     1     9     6    1
     2    11    10    1
     3     8     6    1
     4     6     7    1
     5     6     3    1
     6    12    10    1
     7    39    38    1
     8    10     3    1
     9    10    13    1
    10     4     5    1
    11     4     3    1
    12     4     2    1
    13    37    36    1
    14     3    14    1
    15     1     2    1
    16    38    36   ar
    17    38    29   ar
    18    36    34   ar
    19     2    29    1
    20     2    18    1
    21    29    30   ar
    22    34    35    1
    23    34    32   ar
    24    14    16    1
    25    14    17    1
    26    14    15    1
    27    30    32   ar
    28    30    31    1
    29    28    27    1
    30    32    33    1
    31    18    27   ar
    32    18    19   ar
    33    27    25   ar
    34    20    19    1
    35    19    21   ar
    36    25    26    1
    37    25    23   ar
    38    21    23   ar
    39    21    22    1
    40    23    24    1
