@<TRIPOS>MOLECULE
1,3
 3 2 0 0 0
SMALL
GASTEIGER

@<TRIPOS>ATOM
      1 S           7.0797    3.3766   11.9469 S.3     1  UNL1       -0.0420
      2 S           8.1816    2.3172    9.3408 S.2     1  UNL1       -0.0420
      3 C           7.0426    2.7229   10.4071 C.2     1  UNL1        0.0841
@<TRIPOS>BOND
     1     2     3    2
     2     3     1    1
