@<TRIPOS>MOLECULE
1,4
 39 40 0 0 0
SMALL
GASTEIGER

@<TRIPOS>ATOM
      1 S           2.6720    4.1041    2.8684 S.3     1  UNL1        0.0000
      2 P           3.4183    3.3452    1.1744 P.3     1  UNL1        0.0000
      3 SI          0.6452    3.1368   -0.1828 Si      1  UNL1        0.0000
      4 C           2.3562    3.9861   -0.0983 C.3     1  UNL1        0.0000
      5 H           2.8741    4.0007   -1.0616 H       1  UNL1        0.0000
      6 C           5.1226    3.9566    0.9203 C.ar    1  UNL1        0.0000
      7 C           5.3092    5.3008    0.6174 C.ar    1  UNL1        0.0000
      8 H           4.4340    5.9547    0.5022 H       1  UNL1        0.0000
      9 C           6.5844    5.8129    0.4767 C.ar    1  UNL1        0.0000
     10 H           6.7218    6.8568    0.2366 H       1  UNL1        0.0000
     11 C           7.6840    4.9871    0.6526 C.ar    1  UNL1        0.0000
     12 H           8.6816    5.3865    0.5471 H       1  UNL1        0.0000
     13 C           7.5028    3.6531    0.9769 C.ar    1  UNL1        0.0000
     14 H           8.3583    3.0116    1.1287 H       1  UNL1        0.0000
     15 C           6.2270    3.1351    1.1146 C.ar    1  UNL1        0.0000
     16 H           6.0909    2.0949    1.3755 H       1  UNL1        0.0000
     17 C           3.6219    1.5384    1.2869 C.ar    1  UNL1        0.0000
     18 C           4.0387    0.8427    0.1568 C.ar    1  UNL1        0.0000
     19 H           4.2835    1.3916   -0.7436 H       1  UNL1        0.0000
     20 C           4.1423   -0.5340    0.2008 C.ar    1  UNL1        0.0000
     21 H           4.4680   -1.0802   -0.6723 H       1  UNL1        0.0000
     22 C           3.8243   -1.2147    1.3671 C.ar    1  UNL1        0.0000
     23 H           3.9030   -2.2913    1.3979 H       1  UNL1        0.0000
     24 C           3.4041   -0.5210    2.4901 C.ar    1  UNL1        0.0000
     25 H           3.1563   -1.0551    3.3955 H       1  UNL1        0.0000
     26 C           3.2969    0.8584    2.4511 C.ar    1  UNL1        0.0000
     27 H           2.9668    1.4192    3.3155 H       1  UNL1        0.0000
     28 C          -0.1877    3.8035   -1.7657 C.3     1  UNL1        0.0000
     29 H          -1.1546    3.3333   -1.9016 H       1  UNL1        0.0000
     30 H           0.4041    3.5963   -2.6509 H       1  UNL1        0.0000
     31 H          -0.3458    4.8757   -1.7175 H       1  UNL1        0.0000
     32 C          -0.4102    3.6295    1.3376 C.3     1  UNL1        0.0000
     33 H          -0.1200    3.0676    2.2213 H       1  UNL1        0.0000
     34 H          -1.4641    3.4405    1.1569 H       1  UNL1        0.0000
     35 H          -0.2974    4.6963    1.5728 H       1  UNL1        0.0000
     36 C           0.6986    1.2292   -0.2985 C.3     1  UNL1        0.0000
     37 H           1.0103    0.7722    0.6359 H       1  UNL1        0.0000
     38 H           1.3785    0.8887   -1.0736 H       1  UNL1        0.0000
     39 H          -0.2884    0.8471   -0.5385 H       1  UNL1        0.0000
@<TRIPOS>BOND
     1    30    28    1
     2    29    28    1
     3    28    31    1
     4    28     3    1
     5    38    36    1
     6     5     4    1
     7    19    18    1
     8    21    20    1
     9    39    36    1
    10    36     3    1
    11    36    37    1
    12     3     4    1
    13     3    32    1
    14     4     2    1
    15    18    20   ar
    16    18    17   ar
    17    20    22   ar
    18    10     9    1
    19     9     7   ar
    20     9    11   ar
    21     8     7    1
    22    12    11    1
    23     7     6   ar
    24    11    13   ar
    25     6    15   ar
    26     6     2    1
    27    13    15   ar
    28    13    14    1
    29    15    16    1
    30    34    32    1
    31     2    17    1
    32     2     1    1
    33    17    26   ar
    34    32    35    1
    35    32    33    1
    36    22    23    1
    37    22    24   ar
    38    26    24   ar
    39    26    27    1
    40    24    25    1
