@<TRIPOS>MOLECULE
3,4,5
 25 25 0 0 0
SMALL
GASTEIGER

@<TRIPOS>ATOM
      1 C           5.3943    5.3847    0.9752 C.2     1  UNL1       -0.0477
      2 C           4.4693    4.3052    0.9575 C.2     1  UNL1       -0.0477
      3 C           5.1601    3.1377    0.6497 C.2     1  UNL1       -0.0584
      4 C           6.5423    3.4789    0.4637 C.3     1  UNL1        0.0231
      5 C           6.6602    4.8853    0.6949 C.2     1  UNL1       -0.0584
      6 C           4.9920    6.8106    1.1848 C.3     1  UNL1       -0.0395
      7 C           2.9973    4.4717    1.1748 C.3     1  UNL1       -0.0395
      8 C           4.6384    1.7285    0.6733 C.3     1  UNL1       -0.0424
      9 C           7.6800    2.5113    0.6418 C.3     1  UNL1       -0.0510
     10 C           7.9727    5.6146    0.7202 C.3     1  UNL1       -0.0424
     11 H           4.4620    6.9337    2.1334 H       1  UNL1        0.0278
     12 H           4.3181    7.1417    0.3887 H       1  UNL1        0.0278
     13 H           5.8576    7.4715    1.1900 H       1  UNL1        0.0278
     14 H           2.8020    5.0077    2.1072 H       1  UNL1        0.0278
     15 H           2.5438    5.0521    0.3646 H       1  UNL1        0.0278
     16 H           2.4898    3.5086    1.2261 H       1  UNL1        0.0278
     17 H           4.8877    1.2402    1.6220 H       1  UNL1        0.0275
     18 H           5.0773    1.1309   -0.1298 H       1  UNL1        0.0275
     19 H           3.5545    1.7014    0.5625 H       1  UNL1        0.0275
     20 H           7.8753    2.3537    1.7085 H       1  UNL1        0.0242
     21 H           7.4545    1.5441    0.1942 H       1  UNL1        0.0242
     22 H           8.5935    2.8891    0.1842 H       1  UNL1        0.0242
     23 H           8.5605    5.3167    1.5947 H       1  UNL1        0.0275
     24 H           7.8263    6.6927    0.7691 H       1  UNL1        0.0275
     25 H           8.5658    5.3914   -0.1700 H       1  UNL1        0.0275
@<TRIPOS>BOND
     1    25    10    1
     2    18     8    1
     3    22     9    1
     4    21     9    1
     5    15     7    1
     6    12     6    1
     7     4     9    1
     8     4     3    1
     9     4     5    1
    10    19     8    1
    11     9    20    1
    12     3     8    1
    13     3     2    2
    14     8    17    1
    15     5    10    1
    16     5     1    2
    17    10    24    1
    18    10    23    1
    19     2     1    1
    20     2     7    1
    21     1     6    1
    22     7    16    1
    23     7    14    1
    24     6    13    1
    25     6    11    1
