@<TRIPOS>MOLECULE
1,2,3
 25 25 0 0 0
SMALL
GASTEIGER

@<TRIPOS>ATOM
      1 C          17.2379    1.3830    2.0077 C.2     1  UNL1       -0.0584
      2 C          17.3340    2.8390    1.9621 C.3     1  UNL1        0.0231
      3 C          18.2415    3.2117    3.0363 C.2     1  UNL1       -0.0584
      4 C          18.5784    2.0664    3.7315 C.2     1  UNL1       -0.0477
      5 C          17.9483    0.9375    3.1029 C.2     1  UNL1       -0.0477
      6 C          16.5325    0.5648    0.9681 C.3     1  UNL1       -0.0424
      7 C          17.2700    3.6053    0.6654 C.3     1  UNL1       -0.0510
      8 C          18.8017    4.5859    3.2404 C.3     1  UNL1       -0.0424
      9 C          19.5092    1.9844    4.8992 C.3     1  UNL1       -0.0395
     10 C          18.0911   -0.4698    3.5888 C.3     1  UNL1       -0.0395
     11 H          16.2314   -0.4044    1.3624 H       1  UNL1        0.0275
     12 H          17.1944    0.3897    0.1165 H       1  UNL1        0.0275
     13 H          15.6407    1.0758    0.6011 H       1  UNL1        0.0275
     14 H          16.4396    3.2618    0.0489 H       1  UNL1        0.0242
     15 H          17.1386    4.6711    0.8495 H       1  UNL1        0.0242
     16 H          18.1937    3.4659    0.0994 H       1  UNL1        0.0242
     17 H          18.1015    5.3474    2.9024 H       1  UNL1        0.0275
     18 H          19.7282    4.6993    2.6728 H       1  UNL1        0.0275
     19 H          19.0344    4.7677    4.2892 H       1  UNL1        0.0275
     20 H          20.5458    2.0237    4.5579 H       1  UNL1        0.0278
     21 H          19.3609    2.8196    5.5853 H       1  UNL1        0.0278
     22 H          19.3741    1.0533    5.4459 H       1  UNL1        0.0278
     23 H          19.1397   -0.7703    3.5821 H       1  UNL1        0.0278
     24 H          17.7196   -0.5695    4.6106 H       1  UNL1        0.0278
     25 H          17.5367   -1.1596    2.9573 H       1  UNL1        0.0278
@<TRIPOS>BOND
     1    14     7    1
     2    16     7    1
     3    12     6    1
     4    13     6    1
     5     7    15    1
     6     7     2    1
     7     6    11    1
     8     6     1    1
     9     2     1    1
    10     2     3    1
    11     1     5    2
    12    18     8    1
    13    17     8    1
    14    25    10    1
    15     3     8    1
    16     3     4    2
    17     5    10    1
    18     5     4    1
    19     8    19    1
    20    23    10    1
    21    10    24    1
    22     4     9    1
    23    20     9    1
    24     9    22    1
    25     9    21    1
