@<TRIPOS>MOLECULE
3,5,14
 48 50 0 0 0
SMALL
GASTEIGER

@<TRIPOS>ATOM
      1 P           8.6132    8.2421   11.1368 P.3     1  UNL1        0.0000
      2 SI          7.7138    4.6101    9.9718 Si      1  UNL1        0.0000
      3 C           9.5275    6.9344   10.2807 C.2     1  UNL1        0.0000
      4 C           9.3206    5.6523    9.9112 C.2     1  UNL1        0.0000
      5 C          10.5224    5.0093    9.2992 C.ar    1  UNL1        0.0000
      6 C          10.5490    3.6799    8.8801 C.ar    1  UNL1        0.0000
      7 H           9.6833    3.0474    8.9931 H       1  UNL1        0.0000
      8 C          11.6914    3.1371    8.3144 C.ar    1  UNL1        0.0000
      9 H          11.6916    2.1037    7.9967 H       1  UNL1        0.0000
     10 C          12.8260    3.9105    8.1549 C.ar    1  UNL1        0.0000
     11 H          13.7146    3.4869    7.7068 H       1  UNL1        0.0000
     12 C          12.8140    5.2337    8.5833 C.ar    1  UNL1        0.0000
     13 H          13.7215    5.8291    8.4527 H       1  UNL1        0.0000
     14 C          11.6876    5.8141    9.1623 C.ar    1  UNL1        0.0000
     15 C           8.0034    3.1145   11.1388 C.3     1  UNL1        0.0000
     16 H           7.5798    3.3090   12.1197 H       1  UNL1        0.0000
     17 H           9.0561    2.8886   11.2770 H       1  UNL1        0.0000
     18 H           7.5224    2.2213   10.7509 H       1  UNL1        0.0000
     19 C           6.0548    5.3731   10.5325 C.3     1  UNL1        0.0000
     20 H           5.2399    4.7959   10.1039 H       1  UNL1        0.0000
     21 H           5.9279    6.4002   10.2098 H       1  UNL1        0.0000
     22 H           5.9366    5.3472   11.6091 H       1  UNL1        0.0000
     23 C           7.3708    4.0961    8.1483 C.3     1  UNL1        0.0000
     24 H           7.1096    3.0440    8.0820 H       1  UNL1        0.0000
     25 H           8.2245    4.2619    7.4985 H       1  UNL1        0.0000
     26 H           6.5354    4.6584    7.7404 H       1  UNL1        0.0000
     27 C           7.3541    8.7745    9.9060 C.ar    1  UNL1        0.0000
     28 C           6.6686    9.9616   10.1504 C.ar    1  UNL1        0.0000
     29 H           6.8762   10.5189   11.0550 H       1  UNL1        0.0000
     30 C           5.7366   10.4333    9.2443 C.ar    1  UNL1        0.0000
     31 H           5.2008   11.3494    9.4478 H       1  UNL1        0.0000
     32 C           5.4988    9.7363    8.0710 C.ar    1  UNL1        0.0000
     33 H           4.7736   10.1051    7.3607 H       1  UNL1        0.0000
     34 C           6.2031    8.5735    7.8053 C.ar    1  UNL1        0.0000
     35 H           6.0297    8.0363    6.8839 H       1  UNL1        0.0000
     36 C           7.1298    8.0947    8.7144 C.ar    1  UNL1        0.0000
     37 H           7.6833    7.1898    8.5032 H       1  UNL1        0.0000
     38 C           7.5630    7.3988   12.3891 C.ar    1  UNL1        0.0000
     39 C           8.1293    6.3217   13.0677 C.ar    1  UNL1        0.0000
     40 H           9.0977    5.9489   12.7569 H       1  UNL1        0.0000
     41 C           7.4541    5.7173   14.1110 C.ar    1  UNL1        0.0000
     42 H           7.8986    4.8774   14.6256 H       1  UNL1        0.0000
     43 C           6.2097    6.1881   14.4986 C.ar    1  UNL1        0.0000
     44 H           5.6801    5.7160   15.3131 H       1  UNL1        0.0000
     45 C           5.6472    7.2669   13.8368 C.ar    1  UNL1        0.0000
     46 H           4.6767    7.6366   14.1357 H       1  UNL1        0.0000
     47 C           6.3216    7.8764   12.7941 C.ar    1  UNL1        0.0000
     48 H           5.8691    8.7123   12.2807 H       1  UNL1        0.0000
@<TRIPOS>BOND
     1    35    34    1
     2    33    32    1
     3    25    23    1
     4    11    10    1
     5    26    23    1
     6    34    32   ar
     7    34    36   ar
     8     9     8    1
     9    32    30   ar
    10    24    23    1
    11    23     2    1
    12    10     8   ar
    13    10    12   ar
    14     8     6   ar
    15    13    12    1
    16    37    36    1
    17    12    14   ar
    18    36    27   ar
    19     6     7    1
    20     6     5   ar
    21    14     5   ar
    22    30    31    1
    23    30    28   ar
    24     5     4    1
    25    27    28   ar
    26    27     1    1
    27     4     2    1
    28     4     3    2
    29     2    19    1
    30     2    15    1
    31    20    19    1
    32    28    29    1
    33    21    19    1
    34     3     1    1
    35    19    22    1
    36    18    15    1
    37     1    38    1
    38    15    17    1
    39    15    16    1
    40    48    47    1
    41    38    47   ar
    42    38    39   ar
    43    40    39    1
    44    47    45   ar
    45    39    41   ar
    46    45    46    1
    47    45    43   ar
    48    41    43   ar
    49    41    42    1
    50    43    44    1
