@<TRIPOS>MOLECULE
2,4,19
 32 31 0 0 0
SMALL
GASTEIGER

@<TRIPOS>ATOM
      1 SI          0.9251    1.6762    5.7862 Si      1  UNL1        0.0000
      2 C           0.8385    4.5339    5.5083 C.3     1  UNL1        0.0000
      3 H           1.5845    4.5340    6.3052 H       1  UNL1        0.0000
      4 C           0.4257    3.2867    4.9976 C.3     1  UNL1        0.0000
      5 H          -0.5083    3.2989    4.4208 H       1  UNL1        0.0000
      6 C           1.1762    0.3711    4.4007 C.3     1  UNL1        0.0000
      7 H           0.2381    0.1568    3.8952 H       1  UNL1        0.0000
      8 H           1.5469   -0.5666    4.8022 H       1  UNL1        0.0000
      9 H           1.8852    0.7171    3.6532 H       1  UNL1        0.0000
     10 C          -0.4030    0.9523    6.9686 C.3     1  UNL1        0.0000
     11 H          -0.6260    1.6357    7.7819 H       1  UNL1        0.0000
     12 H          -0.0729    0.0157    7.4067 H       1  UNL1        0.0000
     13 H          -1.3328    0.7564    6.4434 H       1  UNL1        0.0000
     14 C           2.5231    1.9158    6.8116 C.3     1  UNL1        0.0000
     15 H           3.2079    2.6044    6.3236 H       1  UNL1        0.0000
     16 H           3.0453    0.9755    6.9575 H       1  UNL1        0.0000
     17 H           2.2958    2.3158    7.7952 H       1  UNL1        0.0000
     18 SI          0.9247    7.3918    5.7859 Si      1  UNL1        0.0000
     19 C           0.4254    5.7811    4.9977 C.3     1  UNL1        0.0000
     20 H          -0.5088    5.7687    4.4211 H       1  UNL1        0.0000
     21 C           1.1755    8.6963    4.3998 C.3     1  UNL1        0.0000
     22 H           0.2372    8.9109    3.8950 H       1  UNL1        0.0000
     23 H           1.5469    9.6340    4.8007 H       1  UNL1        0.0000
     24 H           1.8837    8.3498    3.6519 H       1  UNL1        0.0000
     25 C          -0.4032    8.1160    6.9682 C.3     1  UNL1        0.0000
     26 H          -0.6258    7.4329    7.7820 H       1  UNL1        0.0000
     27 H          -0.0730    9.0528    7.4059 H       1  UNL1        0.0000
     28 H          -1.3331    8.3115    6.4432 H       1  UNL1        0.0000
     29 C           2.5230    7.1525    6.8110 C.3     1  UNL1        0.0000
     30 H           3.2077    6.4639    6.3230 H       1  UNL1        0.0000
     31 H           3.0451    8.0929    6.9566 H       1  UNL1        0.0000
     32 H           2.2959    6.7527    7.7947 H       1  UNL1        0.0000
@<TRIPOS>BOND
     1    24    21    1
     2     9     6    1
     3    22    21    1
     4     7     6    1
     5    21    23    1
     6    21    18    1
     7     6     8    1
     8     6     1    1
     9     5     4    1
    10    20    19    1
    11     4     2    1
    12     4     1    1
    13    19     2    1
    14    19    18    1
    15     2     3    1
    16    18    29    1
    17    18    25    1
    18     1    14    1
    19     1    10    1
    20    30    29    1
    21    15    14    1
    22    28    25    1
    23    13    10    1
    24    29    31    1
    25    29    32    1
    26    14    16    1
    27    14    17    1
    28    25    27    1
    29    25    26    1
    30    10    12    1
    31    10    11    1
