@<TRIPOS>MOLECULE
3,5,7
 32 31 0 0 0
SMALL
GASTEIGER

@<TRIPOS>ATOM
      1 SI          3.1272    0.9775    7.1924 Si      1  UNL1        0.0000
      2 SI          5.3027    6.2701    6.8971 Si      1  UNL1        0.0000
      3 C           3.8075    2.3849    6.1850 C.3     1  UNL1        0.0000
      4 H           4.3285    2.1326    5.2503 H       1  UNL1        0.0000
      5 C           4.1733    3.6065    6.7845 C.3     1  UNL1        0.0000
      6 H           3.8180    3.7989    7.7975 H       1  UNL1        0.0000
      7 C           4.9293    4.6109    6.1549 C.3     1  UNL1        0.0000
      8 H           5.5041    4.2936    5.2787 H       1  UNL1        0.0000
      9 C           1.7747    0.0137    6.2321 C.3     1  UNL1        0.0000
     10 H           0.7883    0.4370    6.3913 H       1  UNL1        0.0000
     11 H           1.7373   -1.0257    6.5432 H       1  UNL1        0.0000
     12 H           1.9787    0.0316    5.1652 H       1  UNL1        0.0000
     13 C           4.4882   -0.3082    7.6320 C.3     1  UNL1        0.0000
     14 H           4.8825   -0.7793    6.7379 H       1  UNL1        0.0000
     15 H           4.0997   -1.0935    8.2730 H       1  UNL1        0.0000
     16 H           5.3206    0.1572    8.1511 H       1  UNL1        0.0000
     17 C           2.4277    1.5990    8.8636 C.3     1  UNL1        0.0000
     18 H           3.2278    1.8455    9.5548 H       1  UNL1        0.0000
     19 H           1.8120    0.8403    9.3368 H       1  UNL1        0.0000
     20 H           1.8166    2.4870    8.7363 H       1  UNL1        0.0000
     21 C           4.2371    6.5880    8.4543 C.3     1  UNL1        0.0000
     22 H           3.2109    6.2662    8.3089 H       1  UNL1        0.0000
     23 H           4.2220    7.6416    8.7155 H       1  UNL1        0.0000
     24 H           4.6351    6.0484    9.3080 H       1  UNL1        0.0000
     25 C           7.1257    6.5012    7.4616 C.3     1  UNL1        0.0000
     26 H           7.3741    5.8195    8.2690 H       1  UNL1        0.0000
     27 H           7.2967    7.5110    7.8216 H       1  UNL1        0.0000
     28 H           7.8284    6.3193    6.6557 H       1  UNL1        0.0000
     29 C           4.9740    7.6082    5.5482 C.3     1  UNL1        0.0000
     30 H           5.7573    7.6127    4.7950 H       1  UNL1        0.0000
     31 H           4.9352    8.6072    5.9718 H       1  UNL1        0.0000
     32 H           4.0278    7.4242    5.0387 H       1  UNL1        0.0000
@<TRIPOS>BOND
     1    30    29    1
     2    32    29    1
     3    12     9    1
     4     4     3    1
     5     8     7    1
     6    29    31    1
     7    29     2    1
     8     7     5    1
     9     7     2    1
    10     3     5    1
    11     3     1    1
    12     9    10    1
    13     9    11    1
    14     9     1    1
    15    28    25    1
    16    14    13    1
    17     5     6    1
    18     2    25    1
    19     2    21    1
    20     1    13    1
    21     1    17    1
    22    25    27    1
    23    25    26    1
    24    13    16    1
    25    13    15    1
    26    22    21    1
    27    21    23    1
    28    21    24    1
    29    20    17    1
    30    17    19    1
    31    17    18    1
