@<TRIPOS>MOLECULE
18,19,20
 43 45 0 0 0
SMALL
GASTEIGER

@<TRIPOS>ATOM
      1 SI          3.5950    0.1003    5.6422 Si      1  UNL1        0.0000
      2 N           3.7211    1.2304    6.9788 N.pl3   1  UNL1        0.0000
      3 N           1.9281    0.1621    5.0860 N.pl3   1  UNL1        0.0000
      4 C           4.6053    0.6897    4.1503 C.3     1  UNL1        0.0000
      5 C           4.0003   -1.6559    6.2413 C.3     1  UNL1        0.0000
      6 C           4.5584    2.3603    6.8597 C.ar    1  UNL1        0.0000
      7 C           4.0151    3.6386    6.9508 C.ar    1  UNL1        0.0000
      8 C           4.8213    4.7519    6.8057 C.ar    1  UNL1        0.0000
      9 C           6.1776    4.6037    6.5664 C.ar    1  UNL1        0.0000
     10 C           6.7255    3.3346    6.4891 C.ar    1  UNL1        0.0000
     11 C           5.9230    2.2176    6.6394 C.ar    1  UNL1        0.0000
     12 C           3.0514    1.0893    8.1973 C.ar    1  UNL1        0.0000
     13 C           3.5644    1.6787    9.3551 C.ar    1  UNL1        0.0000
     14 C           2.9207    1.5311   10.5681 C.ar    1  UNL1        0.0000
     15 C           1.7576    0.7865   10.6618 C.ar    1  UNL1        0.0000
     16 C           1.2468    0.1915    9.5209 C.ar    1  UNL1        0.0000
     17 C           1.8805    0.3400    8.3020 C.ar    1  UNL1        0.0000
     18 C           1.4759    1.4157    4.6549 C.3     1  UNL1        0.0000
     19 C           0.2256    1.5714    4.0435 C.3     1  UNL1        0.0000
     20 C          -0.1249    0.4927    3.2035 C.3     1  UNL1        0.0000
     21 C           0.2738   -0.8175    3.6818 C.2     1  UNL1        0.0000
     22 C           1.2355   -0.9315    4.6146 C.2     1  UNL1        0.0000
     23 H           5.0669   -0.1465    3.6367 H       1  UNL1        0.0000
     24 H           3.9108    1.1549    3.4485 H       1  UNL1        0.0000
     25 H           5.3821    1.4053    4.3873 H       1  UNL1        0.0000
     26 H           3.9364   -2.3723    5.4299 H       1  UNL1        0.0000
     27 H           3.3308   -1.9798    7.0317 H       1  UNL1        0.0000
     28 H           5.0103   -1.6984    6.6360 H       1  UNL1        0.0000
     29 H           2.9575    3.7473    7.1456 H       1  UNL1        0.0000
     30 H           4.3889    5.7394    6.8736 H       1  UNL1        0.0000
     31 H           6.8055    5.4739    6.4491 H       1  UNL1        0.0000
     32 H           7.7852    3.2129    6.3183 H       1  UNL1        0.0000
     33 H           6.3443    1.2245    6.6025 H       1  UNL1        0.0000
     34 H           4.4794    2.2502    9.3028 H       1  UNL1        0.0000
     35 H           3.3380    1.9975   11.4489 H       1  UNL1        0.0000
     36 H           1.2568    0.6710   11.6111 H       1  UNL1        0.0000
     37 H           0.3385   -0.3912    9.5765 H       1  UNL1        0.0000
     38 H           1.4563   -0.1147    7.4226 H       1  UNL1        0.0000
     39 H           1.8822    2.2261    5.2481 H       1  UNL1        0.0000
     40 H          -0.3726    2.4615    4.1548 H       1  UNL1        0.0000
     41 H          -1.0183    0.5506    2.5981 H       1  UNL1        0.0000
     42 H          -0.2210   -1.6963    3.3020 H       1  UNL1        0.0000
     43 H           1.5376   -1.8798    5.0256 H       1  UNL1        0.0000
@<TRIPOS>BOND
     1    41    20    1
     2    20    21    1
     3    20    19    1
     4    42    21    1
     5    24     4    1
     6    23     4    1
     7    21    22    2
     8    19    40    1
     9    19    18    1
    10     4    25    1
    11     4     1    1
    12    22    43    1
    13    22     3    1
    14    18     3    1
    15    18    39    1
    16     3     1    1
    17    26     5    1
    18     1     5    1
    19     1     2    1
    20     5    28    1
    21     5    27    1
    22    32    10    1
    23    31     9    1
    24    10     9   ar
    25    10    11   ar
    26     9     8   ar
    27    33    11    1
    28    11     6   ar
    29     8    30    1
    30     8     7   ar
    31     6     7   ar
    32     6     2    1
    33     7    29    1
    34     2    12    1
    35    38    17    1
    36    12    17   ar
    37    12    13   ar
    38    17    16   ar
    39    34    13    1
    40    13    14   ar
    41    16    37    1
    42    16    15   ar
    43    14    15   ar
    44    14    35    1
    45    15    36    1
