@<TRIPOS>MOLECULE
2,3,4
 54 53 0 0 0
SMALL
GASTEIGER

@<TRIPOS>ATOM
      1 SI          0.8305   -3.7023    3.1176 Si      1  UNL1        0.0000
      2 C           2.1903    2.1670    4.6689 C.3     1  UNL1        0.0000
      3 C           1.2135    1.1262    4.7418 C.3     1  UNL1        0.0000
      4 C           1.7911   -0.1727    4.5931 C.3     1  UNL1        0.0000
      5 C          -0.2484    1.3928    4.8189 C.2     1  UNL1        0.0000
      6 C          -0.6324    2.7292    5.4302 C.3     1  UNL1        0.0000
      7 C          -2.0351    2.6809    6.0383 C.3     1  UNL1        0.0000
      8 C          -2.7384    4.0523    6.0931 C.3     1  UNL1        0.0000
      9 C          -1.8835    5.0919    6.8147 C.3     1  UNL1        0.0000
     10 C          -3.1442    4.5323    4.7029 C.3     1  UNL1        0.0000
     11 C           0.9943   -1.4512    4.6235 C.3     1  UNL1        0.0000
     12 C           1.1040   -2.1061    5.9996 C.3     1  UNL1        0.0000
     13 C          -1.0618   -3.5294    2.9758 C.3     1  UNL1        0.0000
     14 C           1.2420   -5.1376    4.3170 C.3     1  UNL1        0.0000
     15 C           1.6442   -4.0411    1.4092 C.3     1  UNL1        0.0000
     16 C           3.1685   -4.0158    1.5287 C.3     1  UNL1        0.0000
     17 C           1.2247   -5.4147    0.8872 C.3     1  UNL1        0.0000
     18 C           1.1967   -2.9895    0.3930 C.3     1  UNL1        0.0000
     19 O          -1.0887    0.6045    4.4380 O.2     1  UNL1        0.0000
     20 O          -1.8713    2.1424    7.3402 O.3     1  UNL1        0.0000
     21 O           1.5111   -2.2904    3.6032 O.3     1  UNL1        0.0000
     22 H          -2.7410    1.9924    7.7247 H       1  UNL1        0.0000
     23 H           3.1225    1.9992    5.2068 H       1  UNL1        0.0000
     24 H           1.8536    3.1956    4.7381 H       1  UNL1        0.0000
     25 H           2.7707   -0.3005    5.0668 H       1  UNL1        0.0000
     26 H           0.0746    3.0035    6.2113 H       1  UNL1        0.0000
     27 H          -0.5962    3.4678    4.6278 H       1  UNL1        0.0000
     28 H          -2.6468    1.9983    5.4289 H       1  UNL1        0.0000
     29 H          -3.6555    3.9031    6.6791 H       1  UNL1        0.0000
     30 H          -1.5151    4.6837    7.7530 H       1  UNL1        0.0000
     31 H          -1.0335    5.3850    6.2041 H       1  UNL1        0.0000
     32 H          -2.4718    5.9811    7.0293 H       1  UNL1        0.0000
     33 H          -3.7483    3.7816    4.1992 H       1  UNL1        0.0000
     34 H          -3.7249    5.4485    4.7809 H       1  UNL1        0.0000
     35 H          -2.2730    4.7366    4.0855 H       1  UNL1        0.0000
     36 H          -0.0580   -1.2513    4.4059 H       1  UNL1        0.0000
     37 H           0.4501   -2.9699    6.0540 H       1  UNL1        0.0000
     38 H           2.1266   -2.4296    6.1801 H       1  UNL1        0.0000
     39 H           0.8100   -1.3915    6.7641 H       1  UNL1        0.0000
     40 H          -1.3237   -2.6130    2.4546 H       1  UNL1        0.0000
     41 H          -1.5170   -4.3573    2.4423 H       1  UNL1        0.0000
     42 H          -1.5244   -3.4845    3.9579 H       1  UNL1        0.0000
     43 H           2.2762   -5.0952    4.6465 H       1  UNL1        0.0000
     44 H           0.6172   -5.1205    5.2048 H       1  UNL1        0.0000
     45 H           1.0892   -6.1009    3.8428 H       1  UNL1        0.0000
     46 H           3.6357   -4.1409    0.5512 H       1  UNL1        0.0000
     47 H           3.4988   -3.0744    1.9560 H       1  UNL1        0.0000
     48 H           3.5127   -4.8212    2.1735 H       1  UNL1        0.0000
     49 H           1.6544   -5.5934   -0.0984 H       1  UNL1        0.0000
     50 H           1.5655   -6.2049    1.5510 H       1  UNL1        0.0000
     51 H           0.1434   -5.4836    0.8026 H       1  UNL1        0.0000
     52 H           1.7193   -3.1225   -0.5556 H       1  UNL1        0.0000
     53 H           0.1292   -3.0722    0.2052 H       1  UNL1        0.0000
     54 H           1.3926   -1.9866    0.7645 H       1  UNL1        0.0000
@<TRIPOS>BOND
     1    52    18    1
     2    49    17    1
     3    53    18    1
     4    18    54    1
     5    18    15    1
     6    46    16    1
     7    51    17    1
     8    17    15    1
     9    17    50    1
    10    15    16    1
    11    15     1    1
    12    16    47    1
    13    16    48    1
    14    41    13    1
    15    40    13    1
    16    13     1    1
    17    13    42    1
    18     1    21    1
    19     1    14    1
    20    21    11    1
    21    45    14    1
    22    35    10    1
    23    33    10    1
    24    14    43    1
    25    14    44    1
    26    36    11    1
    27    19     5    2
    28     4    11    1
    29     4     3    1
    30     4    25    1
    31    11    12    1
    32    27     6    1
    33     2    24    1
    34     2     3    1
    35     2    23    1
    36    10    34    1
    37    10     8    1
    38     3     5    1
    39     5     6    1
    40    28     7    1
    41     6     7    1
    42     6    26    1
    43    12    37    1
    44    12    38    1
    45    12    39    1
    46     7     8    1
    47     7    20    1
    48     8    29    1
    49     8     9    1
    50    31     9    1
    51     9    32    1
    52     9    30    1
    53    20    22    1
