@<TRIPOS>MOLECULE
2,4,6
 24 23 0 0 0
SMALL
GASTEIGER

@<TRIPOS>ATOM
      1 SI          6.3567    3.8865   33.3050 Si      1  UNL1        0.0000
      2 C           6.8041    2.8329   29.2348 C.3     1  UNL1        0.0000
      3 C           6.9816    3.2135   31.6549 C.2     1  UNL1        0.0000
      4 C           6.3569    3.2684   27.9670 C.3     1  UNL1        0.0000
      5 C           6.4111    3.4638   30.4683 C.2     1  UNL1        0.0000
      6 C           6.7388    2.4703   26.8699 C.3     1  UNL1        0.0000
      7 H           7.7239    2.0106   26.8891 H       1  UNL1        0.0000
      8 H           6.4025    2.7590   25.8795 H       1  UNL1        0.0000
      9 C           4.8487    5.0118   33.0367 C.3     1  UNL1        0.0000
     10 H           5.1164    5.9113   32.4905 H       1  UNL1        0.0000
     11 H           4.4098    5.3207   33.9808 H       1  UNL1        0.0000
     12 H           4.0798    4.4967   32.4693 H       1  UNL1        0.0000
     13 C           5.8746    2.3715   34.3672 C.3     1  UNL1        0.0000
     14 H           5.0790    1.8037   33.8941 H       1  UNL1        0.0000
     15 H           5.5227    2.6752   35.3484 H       1  UNL1        0.0000
     16 H           6.7172    1.7021   34.5162 H       1  UNL1        0.0000
     17 C           7.7740    4.8384   34.1616 C.3     1  UNL1        0.0000
     18 H           8.6445    4.2069   34.3113 H       1  UNL1        0.0000
     19 H           7.4646    5.2038   35.1358 H       1  UNL1        0.0000
     20 H           8.0880    5.6959   33.5742 H       1  UNL1        0.0000
     21 H           5.5787    4.1509   30.4117 H       1  UNL1        0.0000
     22 H           5.6953    4.1302   27.8591 H       1  UNL1        0.0000
     23 H           7.8241    2.5295   31.6741 H       1  UNL1        0.0000
     24 H           7.7462    2.2818   29.2702 H       1  UNL1        0.0000
@<TRIPOS>BOND
     1     8     6    1
     2     6     7    1
     3     6     4    1
     4    22     4    1
     5     4     2    1
     6     2    24    1
     7     2     5    1
     8    21     5    1
     9     5     3    2
    10     3    23    1
    11     3     1    1
    12    12     9    1
    13    10     9    1
    14     9     1    1
    15     9    11    1
    16     1    17    1
    17     1    13    1
    18    20    17    1
    19    14    13    1
    20    17    18    1
    21    17    19    1
    22    13    16    1
    23    13    15    1
