@<TRIPOS>MOLECULE
2,5,6
 22 22 0 0 0
SMALL
GASTEIGER

@<TRIPOS>ATOM
      1 SI         -0.1835   15.0467    8.1913 Si      1  UNL1        0.0000
      2 C          -0.4095   16.8909    5.9370 C.2     1  UNL1        0.0000
      3 C          -1.1881   16.9453    4.7956 C.2     1  UNL1        0.0000
      4 C          -1.5986   15.6399    4.4676 C.2     1  UNL1        0.0000
      5 C          -1.0770   14.7632    5.4047 C.2     1  UNL1        0.0000
      6 C          -0.3012   15.5209    6.3738 C.3     1  UNL1        0.0000
      7 C          -1.6145   15.8422    9.1802 C.3     1  UNL1        0.0000
      8 C          -0.3174   13.1486    8.3896 C.3     1  UNL1        0.0000
      9 C           1.4621   15.6718    8.9579 C.3     1  UNL1        0.0000
     10 H          -0.0479   17.7419    6.4966 H       1  UNL1        0.0000
     11 H          -1.4553   17.8376    4.2535 H       1  UNL1        0.0000
     12 H          -2.2386   15.3781    3.6395 H       1  UNL1        0.0000
     13 H          -1.3357   13.7163    5.5095 H       1  UNL1        0.0000
     14 H          -1.5648   15.5810   10.2327 H       1  UNL1        0.0000
     15 H          -2.5773   15.5143    8.8016 H       1  UNL1        0.0000
     16 H          -1.5896   16.9247    9.1055 H       1  UNL1        0.0000
     17 H          -0.0804   12.8477    9.4051 H       1  UNL1        0.0000
     18 H           0.3515   12.6140    7.7222 H       1  UNL1        0.0000
     19 H          -1.3277   12.8127    8.1798 H       1  UNL1        0.0000
     20 H           1.4126   16.7384    9.1574 H       1  UNL1        0.0000
     21 H           2.3133   15.4921    8.3040 H       1  UNL1        0.0000
     22 H           1.6620   15.1795    9.9046 H       1  UNL1        0.0000
@<TRIPOS>BOND
     1    12     4    1
     2    11     3    1
     3     4     3    1
     4     4     5    2
     5     3     2    2
     6     5    13    1
     7     5     6    1
     8     2     6    1
     9     2    10    1
    10     6     1    1
    11    18     8    1
    12    19     8    1
    13     1     8    1
    14     1     9    1
    15     1     7    1
    16    21     9    1
    17     8    17    1
    18    15     7    1
    19     9    20    1
    20     9    22    1
    21    16     7    1
    22     7    14    1
