@<TRIPOS>MOLECULE
2,3,9
 22 22 0 0 0
SMALL
GASTEIGER

@<TRIPOS>ATOM
      1 SI          5.8821    5.0104    8.4506 Si      1  UNL1        0.0000
      2 C           5.6074    5.2225    6.5599 C.3     1  UNL1        0.0000
      3 C           6.4696    6.2476    5.9742 C.2     1  UNL1        0.0000
      4 H           7.5486    6.2442    6.0591 H       1  UNL1        0.0000
      5 C           5.7052    7.2184    5.3989 C.2     1  UNL1        0.0000
      6 H           6.0614    8.1022    4.8948 H       1  UNL1        0.0000
      7 C           4.3329    6.8750    5.5618 C.2     1  UNL1        0.0000
      8 H           3.5072    7.4619    5.1943 H       1  UNL1        0.0000
      9 C           4.2567    5.6974    6.2424 C.2     1  UNL1        0.0000
     10 H           3.3582    5.1927    6.5684 H       1  UNL1        0.0000
     11 C           7.4408    3.9630    8.8022 C.3     1  UNL1        0.0000
     12 H           7.6197    3.8742    9.8687 H       1  UNL1        0.0000
     13 H           8.3291    4.4002    8.3548 H       1  UNL1        0.0000
     14 H           7.3200    2.9625    8.3917 H       1  UNL1        0.0000
     15 C           6.0916    6.7591    9.2026 C.3     1  UNL1        0.0000
     16 H           6.0845    6.7204   10.2865 H       1  UNL1        0.0000
     17 H           5.2870    7.4163    8.8880 H       1  UNL1        0.0000
     18 H           7.0255    7.2176    8.8942 H       1  UNL1        0.0000
     19 C           4.3431    4.1841    9.2279 C.3     1  UNL1        0.0000
     20 H           4.5607    3.8396   10.2330 H       1  UNL1        0.0000
     21 H           4.0265    3.3253    8.6442 H       1  UNL1        0.0000
     22 H           3.5112    4.8777    9.2926 H       1  UNL1        0.0000
@<TRIPOS>BOND
     1     6     5    1
     2     8     7    1
     3     5     7    1
     4     5     3    2
     5     7     9    2
     6     3     4    1
     7     3     2    1
     8     9     2    1
     9     9    10    1
    10     2     1    1
    11    13    11    1
    12    14    11    1
    13     1    11    1
    14     1    15    1
    15     1    19    1
    16    21    19    1
    17    11    12    1
    18    17    15    1
    19    18    15    1
    20    15    16    1
    21    19    22    1
    22    19    20    1
