@<TRIPOS>MOLECULE
1,7,9
 10 10 0 0 0
SMALL
GASTEIGER

@<TRIPOS>ATOM
      1 C           1.4013    6.2789    1.7726 C.2     1  UNL1       -0.0837
      2 H           0.5269    6.7907    2.1473 H       1  UNL1        0.0572
      3 C           1.7729    6.1494    0.4388 C.2     1  UNL1       -0.0837
      4 H           1.2067    6.4913   -0.4102 H       1  UNL1        0.0572
      5 C           2.9992    5.4767    0.3797 C.3     1  UNL1       -0.0127
      6 H           3.5501    5.2503   -0.5195 H       1  UNL1        0.0352
      7 C           3.4036    5.1635    1.6874 C.3     1  UNL1       -0.0235
      8 H           4.4130    4.8842    1.9761 H       1  UNL1        0.0315
      9 C           2.4032    5.6735    2.5768 C.3     1  UNL1       -0.0127
     10 H           2.5846    5.9320    3.6142 H       1  UNL1        0.0352
@<TRIPOS>BOND
     1     6     5    1
     2     4     3    1
     3     5     3    1
     4     5     7    1
     5     3     1    2
     6     7     8    1
     7     7     9    1
     8     1     2    1
     9     1     9    1
    10     9    10    1
