@<TRIPOS>MOLECULE
1,7,8
 10 10 0 0 0
SMALL
GASTEIGER

@<TRIPOS>ATOM
      1 C           1.4010    0.3319    1.7719 C.2     1  UNL1       -0.0837
      2 H           0.5266   -0.1798    2.1465 H       1  UNL1        0.0572
      3 C           1.7729    0.4614    0.4381 C.2     1  UNL1       -0.0837
      4 C           2.9992    1.1341    0.3792 C.3     1  UNL1       -0.0127
      5 H           1.2067    0.1196   -0.4109 H       1  UNL1        0.0572
      6 H           3.5501    1.3606   -0.5200 H       1  UNL1        0.0352
      7 C           3.4034    1.4473    1.6869 C.3     1  UNL1       -0.0235
      8 C           2.4028    0.9374    2.5762 C.3     1  UNL1       -0.0127
      9 H           4.4128    1.7266    1.9757 H       1  UNL1        0.0315
     10 H           2.5842    0.6788    3.6136 H       1  UNL1        0.0352
@<TRIPOS>BOND
     1     6     4    1
     2     5     3    1
     3     4     3    1
     4     4     7    1
     5     3     1    2
     6     7     9    1
     7     7     8    1
     8     1     2    1
     9     1     8    1
    10     8    10    1
