@<TRIPOS>MOLECULE
2,3,4
 10 10 0 0 0
SMALL
GASTEIGER

@<TRIPOS>ATOM
      1 C          14.4967    3.9382    3.9964 C.2     1  UNL1       -0.0654
      2 C          14.4703    5.3413    3.9073 C.2     1  UNL1       -0.0763
      3 C          14.9285    5.8657    5.1456 C.3     1  UNL1        0.0054
      4 C          15.2322    4.7689    5.9864 C.2     1  UNL1       -0.0763
      5 C          14.9397    3.5846    5.2836 C.2     1  UNL1       -0.0654
      6 H          14.3221    3.2528    3.1780 H       1  UNL1        0.0615
      7 H          14.2990    5.9095    3.0007 H       1  UNL1        0.0578
      8 H          15.2157    6.8926    5.3281 H       1  UNL1        0.0394
      9 H          15.7113    4.8189    6.9545 H       1  UNL1        0.0578
     10 H          15.1309    2.5794    5.6386 H       1  UNL1        0.0615
@<TRIPOS>BOND
     1     7     2    1
     2     6     1    1
     3     2     1    2
     4     2     3    1
     5     1     5    1
     6     3     8    1
     7     3     4    1
     8     5    10    1
     9     5     4    2
    10     4     9    1
