@<TRIPOS>MOLECULE
2,3,6
 54 55 0 0 0
SMALL
GASTEIGER

@<TRIPOS>ATOM
      1 SI          3.2361   10.0245    2.9855 Si      1  UNL1        0.0000
      2 C           1.9592    8.7622    3.5265 C.3     1  UNL1        0.0000
      3 C           1.6431    7.6035    3.7734 C.3     1  UNL1        0.0000
      4 C          -0.0346    5.7521    4.8276 C.2     1  UNL1        0.0000
      5 H          -0.1219    4.7097    5.1370 H       1  UNL1        0.0000
      6 C          -1.0252    6.6206    5.0609 C.2     1  UNL1        0.0000
      7 C          -2.3079    6.1552    5.7660 C.3     1  UNL1        0.0000
      8 C          -3.5330    6.8731    5.1733 C.3     1  UNL1        0.0000
      9 H          -4.4049    6.7040    5.8044 H       1  UNL1        0.0000
     10 H          -3.7553    6.4767    4.1836 H       1  UNL1        0.0000
     11 H          -3.3598    7.9506    5.0961 H       1  UNL1        0.0000
     12 C          -2.5634    4.6443    5.6493 C.3     1  UNL1        0.0000
     13 H          -1.8528    4.0774    6.2444 H       1  UNL1        0.0000
     14 H          -2.4854    4.3240    4.6130 H       1  UNL1        0.0000
     15 H          -3.5623    4.4108    6.0125 H       1  UNL1        0.0000
     16 C          -2.1703    6.5177    7.2546 C.3     1  UNL1        0.0000
     17 H          -2.0852    7.5949    7.3853 H       1  UNL1        0.0000
     18 H          -1.2797    6.0489    7.6702 H       1  UNL1        0.0000
     19 H          -3.0356    6.1652    7.8133 H       1  UNL1        0.0000
     20 C           2.5029   11.7593    2.6648 C.3     1  UNL1        0.0000
     21 H           2.2311   12.2652    3.5868 H       1  UNL1        0.0000
     22 H           1.6272   11.7287    2.0216 H       1  UNL1        0.0000
     23 H           3.2421   12.3810    2.1671 H       1  UNL1        0.0000
     24 C           4.5078   10.0778    4.4055 C.3     1  UNL1        0.0000
     25 H           5.3230   10.7563    4.1743 H       1  UNL1        0.0000
     26 H           4.9339    9.0925    4.5696 H       1  UNL1        0.0000
     27 H           4.0663   10.4049    5.3427 H       1  UNL1        0.0000
     28 C           3.9930    9.3185    1.3852 C.3     1  UNL1        0.0000
     29 H           3.2529    9.2016    0.5987 H       1  UNL1        0.0000
     30 H           4.4330    8.3436    1.5687 H       1  UNL1        0.0000
     31 H           4.7767    9.9665    1.0048 H       1  UNL1        0.0000
     32 C           1.8672    5.2123    2.9260 C.ar    1  UNL1        0.0000
     33 F          -0.3217    4.4224    2.5115 F       1  UNL1        0.0000
     34 C           0.9809    4.4479    2.1787 C.ar    1  UNL1        0.0000
     35 F           0.4752    2.9939    0.3765 F       1  UNL1        0.0000
     36 C           1.3705    3.7196    1.0591 C.ar    1  UNL1        0.0000
     37 F           3.0854    3.0694   -0.4357 F       1  UNL1        0.0000
     38 C           2.6946    3.7592    0.6408 C.ar    1  UNL1        0.0000
     39 F           4.8753    4.6234    0.9301 F       1  UNL1        0.0000
     40 C           3.6035    4.5437    1.3421 C.ar    1  UNL1        0.0000
     41 F           4.0774    6.0249    3.0911 F       1  UNL1        0.0000
     42 C           3.1755    5.2527    2.4565 C.ar    1  UNL1        0.0000
     43 C           2.3873    5.9166    5.5151 C.ar    1  UNL1        0.0000
     44 F           3.4130    3.8637    4.9366 F       1  UNL1        0.0000
     45 C           3.2501    4.8670    5.8114 C.ar    1  UNL1        0.0000
     46 F           4.7855    3.7745    7.2455 F       1  UNL1        0.0000
     47 C           3.9591    4.7977    7.0080 C.ar    1  UNL1        0.0000
     48 F           4.4907    5.7403    9.1150 F       1  UNL1        0.0000
     49 C           3.8092    5.7946    7.9664 C.ar    1  UNL1        0.0000
     50 F           2.7436    7.8086    8.6294 F       1  UNL1        0.0000
     51 C           2.9287    6.8440    7.7188 C.ar    1  UNL1        0.0000
     52 F           1.3437    7.8894    6.3014 F       1  UNL1        0.0000
     53 C           2.2463    6.8684    6.5154 C.ar    1  UNL1        0.0000
     54 B           1.4253    6.1017    4.2144 B       1  UNL1        0.0000
@<TRIPOS>BOND
     1    37    38    1
     2    35    36    1
     3    29    28    1
     4    38    36   ar
     5    38    40   ar
     6    39    40    1
     7    31    28    1
     8    36    34   ar
     9    40    42   ar
    10    28    30    1
    11    28     1    1
    12    22    20    1
    13    23    20    1
    14    34    33    1
    15    34    32   ar
    16    42    32   ar
    17    42    41    1
    18    20     1    1
    19    20    21    1
    20    32    54    1
    21     1     2    1
    22     1    24    1
    23     2     3    1
    24     3    54    1
    25    25    24    1
    26    10     8    1
    27    54     4    1
    28    54    43    1
    29    24    26    1
    30    24    27    1
    31    14    12    1
    32     4     6    2
    33     4     5    1
    34    44    45    1
    35     6     7    1
    36    11     8    1
    37     8     7    1
    38     8     9    1
    39    43    45   ar
    40    43    53   ar
    41    12     7    1
    42    12    15    1
    43    12    13    1
    44     7    16    1
    45    45    47   ar
    46    52    53    1
    47    53    51   ar
    48    47    46    1
    49    47    49   ar
    50    16    17    1
    51    16    18    1
    52    16    19    1
    53    51    49   ar
    54    51    50    1
    55    49    48    1
