@<TRIPOS>MOLECULE
1,2,5
 49 50 0 0 0
SMALL
GASTEIGER

@<TRIPOS>ATOM
      1 C           2.6882    3.5796    6.5597 C.3     1  UNL1        0.0000
      2 C           3.8715    3.5717    6.8838 C.3     1  UNL1        0.0000
      3 C           6.4416    3.9766    6.1629 C.2     1  UNL1        0.0000
      4 H           7.4651    4.1862    6.4855 H       1  UNL1        0.0000
      5 C           6.1303    4.0547    4.8662 C.2     1  UNL1        0.0000
      6 C           7.0937    4.4946    3.8449 C.2     1  UNL1        0.0000
      7 C           7.5490    5.7476    3.8272 C.2     1  UNL1        0.0000
      8 H           8.2281    6.1013    3.0693 H       1  UNL1        0.0000
      9 H           7.2508    6.4615    4.5785 H       1  UNL1        0.0000
     10 C           7.5337    3.4811    2.8196 C.3     1  UNL1        0.0000
     11 H           8.1648    3.9477    2.0661 H       1  UNL1        0.0000
     12 H           6.6740    3.0174    2.3291 H       1  UNL1        0.0000
     13 H           8.1104    2.6971    3.3120 H       1  UNL1        0.0000
     14 SI          0.8370    3.6334    6.8750 Si      1  UNL1        0.0000
     15 C           0.6278    3.0319    8.6692 C.3     1  UNL1        0.0000
     16 H           1.2495    3.6053    9.3496 H       1  UNL1        0.0000
     17 H           0.9111    1.9888    8.7753 H       1  UNL1        0.0000
     18 H          -0.4029    3.1276    8.9972 H       1  UNL1        0.0000
     19 C           0.2621    5.4435    6.6696 C.3     1  UNL1        0.0000
     20 H          -0.6750    5.6010    7.1954 H       1  UNL1        0.0000
     21 H           0.0958    5.7111    5.6299 H       1  UNL1        0.0000
     22 H           0.9856    6.1402    7.0836 H       1  UNL1        0.0000
     23 C          -0.1205    2.4966    5.6670 C.3     1  UNL1        0.0000
     24 H          -1.1347    2.8618    5.5309 H       1  UNL1        0.0000
     25 H          -0.1976    1.4850    6.0559 H       1  UNL1        0.0000
     26 H           0.3396    2.4341    4.6833 H       1  UNL1        0.0000
     27 B           5.3681    3.7696    7.3657 B       1  UNL1        0.0000
     28 C           5.3830    5.2543    8.0391 C.ar    1  UNL1        0.0000
     29 F           6.5904    4.7448   10.0099 F       1  UNL1        0.0000
     30 C           5.9862    5.6508    9.2279 C.ar    1  UNL1        0.0000
     31 F           6.5918    7.3095   10.8052 F       1  UNL1        0.0000
     32 C           6.0073    6.9778    9.6504 C.ar    1  UNL1        0.0000
     33 F           5.4256    9.2424    9.2701 F       1  UNL1        0.0000
     34 C           5.4192    7.9673    8.8697 C.ar    1  UNL1        0.0000
     35 F           4.2736    8.5426    6.8734 F       1  UNL1        0.0000
     36 C           4.8334    7.6125    7.6581 C.ar    1  UNL1        0.0000
     37 F           4.2963    5.9585    6.0529 F       1  UNL1        0.0000
     38 C           4.8409    6.2814    7.2782 C.ar    1  UNL1        0.0000
     39 C           5.6797    2.5608    8.4048 C.ar    1  UNL1        0.0000
     40 F           4.0117    3.3571    9.8709 F       1  UNL1        0.0000
     41 C           4.9623    2.4469    9.5904 C.ar    1  UNL1        0.0000
     42 F           4.4459    1.3556   11.6299 F       1  UNL1        0.0000
     43 C           5.1681    1.4221   10.5044 C.ar    1  UNL1        0.0000
     44 F           6.3355   -0.5486   11.0993 F       1  UNL1        0.0000
     45 C           6.1235    0.4484   10.2343 C.ar    1  UNL1        0.0000
     46 F           7.7401   -0.4370    8.7568 F       1  UNL1        0.0000
     47 C           6.8388    0.5109    9.0449 C.ar    1  UNL1        0.0000
     48 F           7.2761    1.5432    6.9909 F       1  UNL1        0.0000
     49 C           6.6008    1.5526    8.1535 C.ar    1  UNL1        0.0000
@<TRIPOS>BOND
     1    11    10    1
     2    12    10    1
     3    10    13    1
     4    10     6    1
     5     8     7    1
     6     7     6    2
     7     7     9    1
     8     6     5    1
     9    26    23    1
    10     5     3    2
    11    24    23    1
    12    21    19    1
    13    23    25    1
    14    23    14    1
    15    37    38    1
    16     3     4    1
    17     3    27    1
    18     1    14    1
    19     1     2    1
    20    19    14    1
    21    19    22    1
    22    19    20    1
    23    35    36    1
    24    14    15    1
    25     2    27    1
    26    48    49    1
    27    38    36   ar
    28    38    28   ar
    29    27    28    1
    30    27    39    1
    31    36    34   ar
    32    28    30   ar
    33    49    39   ar
    34    49    47   ar
    35    39    41   ar
    36    15    17    1
    37    15    18    1
    38    15    16    1
    39    46    47    1
    40    34    33    1
    41    34    32   ar
    42    47    45   ar
    43    30    32   ar
    44    30    29    1
    45    41    40    1
    46    41    43   ar
    47    32    31    1
    48    45    43   ar
    49    45    44    1
    50    43    42    1
