@<TRIPOS>MOLECULE
2,3,6
 34 34 0 0 0
SMALL
GASTEIGER

@<TRIPOS>ATOM
      1 SI          9.1550    8.3044   20.3592 Si      1  UNL1        0.0000
      2 C           8.7866    6.6041   19.6398 C.3     1  UNL1        0.0000
      3 C           9.7134    5.6252   19.1295 C.2     1  UNL1        0.0000
      4 C           9.0257    4.4062   18.9434 C.2     1  UNL1        0.0000
      5 C           7.6727    4.5876   19.3465 C.2     1  UNL1        0.0000
      6 C           7.5179    5.9245   19.7808 C.2     1  UNL1        0.0000
      7 C          11.2039    5.7851   19.0166 C.3     1  UNL1        0.0000
      8 H          11.6291    4.9984   18.3964 H       1  UNL1        0.0000
      9 H          11.6623    5.7159   20.0057 H       1  UNL1        0.0000
     10 H          11.4805    6.7415   18.5809 H       1  UNL1        0.0000
     11 C           9.6478    3.1125   18.4988 C.3     1  UNL1        0.0000
     12 H          10.2322    2.6688   19.3078 H       1  UNL1        0.0000
     13 H          10.3147    3.2678   17.6495 H       1  UNL1        0.0000
     14 H           8.8842    2.3952   18.2053 H       1  UNL1        0.0000
     15 C           6.6425    3.5011   19.4772 C.3     1  UNL1        0.0000
     16 H           5.6363    3.9157   19.4860 H       1  UNL1        0.0000
     17 H           6.7881    2.9531   20.4112 H       1  UNL1        0.0000
     18 H           6.7136    2.7834   18.6603 H       1  UNL1        0.0000
     19 C           6.3066    6.4520   20.5009 C.3     1  UNL1        0.0000
     20 H           6.3018    6.0904   21.5322 H       1  UNL1        0.0000
     21 H           5.3822    6.1180   20.0284 H       1  UNL1        0.0000
     22 H           6.3024    7.5378   20.5234 H       1  UNL1        0.0000
     23 C           7.8556    9.5838   19.7434 C.3     1  UNL1        0.0000
     24 H           7.0623    9.7352   20.4694 H       1  UNL1        0.0000
     25 H           7.3950    9.2598   18.8103 H       1  UNL1        0.0000
     26 H           8.3104   10.5544   19.5672 H       1  UNL1        0.0000
     27 C          10.8627    9.0259   19.8802 C.3     1  UNL1        0.0000
     28 H          11.0104    9.0530   18.8046 H       1  UNL1        0.0000
     29 H          11.6775    8.4579   20.3145 H       1  UNL1        0.0000
     30 H          10.9472   10.0444   20.2481 H       1  UNL1        0.0000
     31 C           9.0927    8.2468   22.2725 C.3     1  UNL1        0.0000
     32 H           9.8444    7.5716   22.6685 H       1  UNL1        0.0000
     33 H           8.1273    7.9053   22.6309 H       1  UNL1        0.0000
     34 H           9.2748    9.2287   22.6981 H       1  UNL1        0.0000
@<TRIPOS>BOND
     1    13    11    1
     2    14    11    1
     3     8     7    1
     4    11     4    1
     5    11    12    1
     6    10     7    1
     7    18    15    1
     8    28    27    1
     9    25    23    1
    10     4     3    2
    11     4     5    1
    12     7     3    1
    13     7     9    1
    14     3     2    1
    15     5    15    1
    16     5     6    2
    17    15    16    1
    18    15    17    1
    19    26    23    1
    20     2     6    1
    21     2     1    1
    22    23     1    1
    23    23    24    1
    24     6    19    1
    25    27    30    1
    26    27    29    1
    27    27     1    1
    28    21    19    1
    29     1    31    1
    30    19    22    1
    31    19    20    1
    32    31    33    1
    33    31    32    1
    34    31    34    1
