@<TRIPOS>MOLECULE
3,4,6
 34 34 0 0 0
SMALL
GASTEIGER

@<TRIPOS>ATOM
      1 SI          4.0010    6.6943    2.0628 Si      1  UNL1        0.0000
      2 C           5.5820    8.5979    5.2579 C.2     1  UNL1        0.0000
      3 C           4.8581    8.6404    4.0727 C.2     1  UNL1        0.0000
      4 C           5.2240    7.4915    3.2555 C.3     1  UNL1        0.0000
      5 C           6.4095    7.4390    5.2448 C.2     1  UNL1        0.0000
      6 C           6.1909    6.7511    4.0575 C.2     1  UNL1        0.0000
      7 C           2.4849    5.9910    3.0011 C.3     1  UNL1        0.0000
      8 H           1.9582    6.7645    3.5500 H       1  UNL1        0.0000
      9 H           2.7871    5.2355    3.7194 H       1  UNL1        0.0000
     10 H           1.7772    5.5331    2.3167 H       1  UNL1        0.0000
     11 C           5.4946    9.5862    6.3833 C.3     1  UNL1        0.0000
     12 H           5.8382    9.1378    7.3124 H       1  UNL1        0.0000
     13 H           4.4664    9.9149    6.5304 H       1  UNL1        0.0000
     14 H           6.1077   10.4693    6.1858 H       1  UNL1        0.0000
     15 C           3.7101    9.5653    3.7712 C.3     1  UNL1        0.0000
     16 H           3.7193   10.4267    4.4354 H       1  UNL1        0.0000
     17 H           2.7629    9.0435    3.9224 H       1  UNL1        0.0000
     18 H           3.7281    9.9249    2.7427 H       1  UNL1        0.0000
     19 C           7.2929    7.0021    6.3758 C.3     1  UNL1        0.0000
     20 H           7.6879    7.8582    6.9178 H       1  UNL1        0.0000
     21 H           8.1357    6.4137    6.0156 H       1  UNL1        0.0000
     22 H           6.7341    6.3842    7.0828 H       1  UNL1        0.0000
     23 C           6.6819    5.3669    3.7344 C.3     1  UNL1        0.0000
     24 H           7.5276    5.0954    4.3630 H       1  UNL1        0.0000
     25 H           6.9808    5.2714    2.6904 H       1  UNL1        0.0000
     26 H           5.8900    4.6396    3.9249 H       1  UNL1        0.0000
     27 C           4.7111    5.2347    1.0432 C.3     1  UNL1        0.0000
     28 H           4.0311    4.9878    0.2336 H       1  UNL1        0.0000
     29 H           4.8270    4.3425    1.6478 H       1  UNL1        0.0000
     30 H           5.6752    5.4639    0.5998 H       1  UNL1        0.0000
     31 C           3.3620    7.9700    0.7739 C.3     1  UNL1        0.0000
     32 H           2.4996    8.5130    1.1460 H       1  UNL1        0.0000
     33 H           3.0527    7.4688   -0.1382 H       1  UNL1        0.0000
     34 H           4.1260    8.6979    0.5034 H       1  UNL1        0.0000
@<TRIPOS>BOND
     1    33    31    1
     2    28    27    1
     3    34    31    1
     4    30    27    1
     5    31    32    1
     6    31     1    1
     7    27    29    1
     8    27     1    1
     9     1     7    1
    10     1     4    1
    11    10     7    1
    12    25    23    1
    13    18    15    1
    14     7     8    1
    15     7     9    1
    16     4     6    1
    17     4     3    1
    18    23    26    1
    19    23     6    1
    20    23    24    1
    21    15    17    1
    22    15     3    1
    23    15    16    1
    24     6     5    2
    25     3     2    2
    26     5     2    1
    27     5    19    1
    28     2    11    1
    29    21    19    1
    30    14    11    1
    31    19    20    1
    32    19    22    1
    33    11    13    1
    34    11    12    1
