@<TRIPOS>MOLECULE
1,3,5
 21 21 0 0 0
SMALL
GASTEIGER

@<TRIPOS>ATOM
      1 C           2.6392    2.2820    6.8077 C.3     1  UNL1       -0.0346
      2 H           3.4103    3.0093    7.0769 H       1  UNL1        0.0306
      3 C           3.1159    1.1188    6.1853 C.3     1  UNL1       -0.0315
      4 H           4.1475    1.1113    5.8225 H       1  UNL1        0.0309
      5 C           2.2655    0.0449    5.7819 C.3     1  UNL1       -0.0346
      6 H           2.8061   -0.7375    5.2399 H       1  UNL1        0.0306
      7 C           1.1956   -0.5713    6.6771 C.3     1  UNL1       -0.0497
      8 H           0.8175   -1.4689    6.1756 H       1  UNL1        0.0268
      9 H           0.3297    0.0842    6.8113 H       1  UNL1        0.0268
     10 C           1.7097   -0.9919    8.0645 C.3     1  UNL1       -0.0528
     11 H           0.8494   -1.2922    8.6704 H       1  UNL1        0.0265
     12 H           2.3505   -1.8706    7.9478 H       1  UNL1        0.0265
     13 C           2.5144    0.0667    8.8184 C.3     1  UNL1       -0.0530
     14 H           2.7796   -0.3530    9.7935 H       1  UNL1        0.0265
     15 H           3.4497    0.2506    8.2855 H       1  UNL1        0.0265
     16 C           1.8095    1.4005    9.0670 C.3     1  UNL1       -0.0528
     17 H           2.4548    1.9890    9.7266 H       1  UNL1        0.0265
     18 H           0.8722    1.2234    9.6023 H       1  UNL1        0.0265
     19 C           1.5041    2.2527    7.8167 C.3     1  UNL1       -0.0497
     20 H           0.5731    1.9008    7.3556 H       1  UNL1        0.0268
     21 H           1.3048    3.2740    8.1618 H       1  UNL1        0.0268
@<TRIPOS>BOND
     1     6     5    1
     2     5     3    1
     3     5     7    1
     4     4     3    1
     5     8     7    1
     6     3     1    1
     7     7     9    1
     8     7    10    1
     9     1     2    1
    10     1    19    1
    11    20    19    1
    12    19    21    1
    13    19    16    1
    14    12    10    1
    15    10    11    1
    16    10    13    1
    17    15    13    1
    18    13    16    1
    19    13    14    1
    20    16    18    1
    21    16    17    1
