@<TRIPOS>MOLECULE
8,9,14
 74 75 0 0 0
SMALL
GASTEIGER

@<TRIPOS>ATOM
      1 SI          0.5884    8.5184   10.0451 Si      1  UNL1        0.0000
      2 SI         -1.0269    9.9781   16.7610 Si      1  UNL1        0.0000
      3 C          -0.2185    8.6505   11.7350 C.2     1  UNL1        0.0000
      4 C          -1.5801    8.3570   11.9969 C.2     1  UNL1        0.0000
      5 H          -2.2875    8.0572   11.2431 H       1  UNL1        0.0000
      6 C          -1.8911    8.4970   13.3482 C.2     1  UNL1        0.0000
      7 H          -2.8762    8.4080   13.7764 H       1  UNL1        0.0000
      8 C          -0.6987    8.9270   13.9970 C.3     1  UNL1        0.0000
      9 C           0.3370    9.0025   12.9912 C.2     1  UNL1        0.0000
     10 C           1.5357    9.3899   13.6588 C.2     1  UNL1        0.0000
     11 H           2.4935    9.5827   13.2064 H       1  UNL1        0.0000
     12 C           1.2502    9.5155   15.0041 C.2     1  UNL1        0.0000
     13 H           1.9635    9.8213   15.7513 H       1  UNL1        0.0000
     14 C          -0.1310    9.2060   15.2914 C.3     1  UNL1        0.0000
     15 C          -0.1033    9.9091    8.8941 C.3     1  UNL1        0.0000
     16 H           0.3768   10.8442    9.2002 H       1  UNL1        0.0000
     17 C           0.2409    9.6827    7.4236 C.3     1  UNL1        0.0000
     18 H           1.3164    9.6158    7.2808 H       1  UNL1        0.0000
     19 H          -0.1291   10.5069    6.8137 H       1  UNL1        0.0000
     20 H          -0.2079    8.7639    7.0541 H       1  UNL1        0.0000
     21 C          -1.6061   10.1251    9.0543 C.3     1  UNL1        0.0000
     22 H          -1.8517   10.3448   10.0898 H       1  UNL1        0.0000
     23 H          -2.1648    9.2440    8.7505 H       1  UNL1        0.0000
     24 H          -1.9373   10.9614    8.4388 H       1  UNL1        0.0000
     25 C           0.2990    6.7472    9.3214 C.3     1  UNL1        0.0000
     26 H           0.9172    6.6435    8.4237 H       1  UNL1        0.0000
     27 C          -1.1420    6.4698    8.9038 C.3     1  UNL1        0.0000
     28 H          -1.4847    7.1855    8.1623 H       1  UNL1        0.0000
     29 H          -1.8062    6.5167    9.7623 H       1  UNL1        0.0000
     30 H          -1.2262    5.4725    8.4712 H       1  UNL1        0.0000
     31 C           0.7412    5.6753   10.3165 C.3     1  UNL1        0.0000
     32 H           1.7937    5.7824   10.5632 H       1  UNL1        0.0000
     33 H           0.5901    4.6794    9.9008 H       1  UNL1        0.0000
     34 H           0.1635    5.7503   11.2387 H       1  UNL1        0.0000
     35 C           2.4927    8.7665   10.2625 C.3     1  UNL1        0.0000
     36 H           2.7784    8.2857   11.2037 H       1  UNL1        0.0000
     37 C           2.8567   10.2449   10.3771 C.3     1  UNL1        0.0000
     38 H           2.2340   10.7456   11.1141 H       1  UNL1        0.0000
     39 H           2.7196   10.7439    9.4207 H       1  UNL1        0.0000
     40 H           3.9005   10.3646   10.6686 H       1  UNL1        0.0000
     41 C           3.3344    8.1249    9.1626 C.3     1  UNL1        0.0000
     42 H           3.1742    7.0513    9.1172 H       1  UNL1        0.0000
     43 H           4.3948    8.2996    9.3462 H       1  UNL1        0.0000
     44 H           3.0911    8.5476    8.1907 H       1  UNL1        0.0000
     45 C          -1.8733   11.5967   16.1202 C.3     1  UNL1        0.0000
     46 H          -2.3688   12.0824   16.9673 H       1  UNL1        0.0000
     47 C          -0.8360   12.5724   15.5661 C.3     1  UNL1        0.0000
     48 H          -0.1120   12.8504   16.3272 H       1  UNL1        0.0000
     49 H          -1.3196   13.4812   15.2094 H       1  UNL1        0.0000
     50 H          -0.3007   12.1242   14.7321 H       1  UNL1        0.0000
     51 C          -2.9353   11.3404   15.0546 C.3     1  UNL1        0.0000
     52 H          -3.7014   10.6583   15.4144 H       1  UNL1        0.0000
     53 H          -2.4832   10.9124   14.1640 H       1  UNL1        0.0000
     54 H          -3.4217   12.2732   14.7703 H       1  UNL1        0.0000
     55 C          -2.3032    8.8191   17.6452 C.3     1  UNL1        0.0000
     56 H          -1.7508    8.2311   18.3856 H       1  UNL1        0.0000
     57 C          -2.9937    7.8279   16.7126 C.3     1  UNL1        0.0000
     58 H          -2.2677    7.2181   16.1736 H       1  UNL1        0.0000
     59 H          -3.6118    8.3543   15.9902 H       1  UNL1        0.0000
     60 H          -3.6428    7.1623   17.2819 H       1  UNL1        0.0000
     61 C          -3.3707    9.6100   18.4014 C.3     1  UNL1        0.0000
     62 H          -2.9250   10.3091   19.1020 H       1  UNL1        0.0000
     63 H          -4.0177    8.9348   18.9611 H       1  UNL1        0.0000
     64 H          -3.9925   10.1740   17.7111 H       1  UNL1        0.0000
     65 C           0.3194   10.5035   18.0466 C.3     1  UNL1        0.0000
     66 H           1.0498   11.1195   17.5137 H       1  UNL1        0.0000
     67 C          -0.2338   11.3551   19.1857 C.3     1  UNL1        0.0000
     68 H          -0.7891   12.2094   18.8076 H       1  UNL1        0.0000
     69 H           0.5777   11.7290   19.8099 H       1  UNL1        0.0000
     70 H          -0.8921   10.7655   19.8190 H       1  UNL1        0.0000
     71 C           1.0727    9.3115   18.6305 C.3     1  UNL1        0.0000
     72 H           1.5162    8.7094   17.8435 H       1  UNL1        0.0000
     73 H           0.4030    8.6792   19.2085 H       1  UNL1        0.0000
     74 H           1.8673    9.6504   19.2949 H       1  UNL1        0.0000
@<TRIPOS>BOND
     1    19    17    1
     2    20    17    1
     3    18    17    1
     4    17    15    1
     5    28    27    1
     6    44    41    1
     7    26    25    1
     8    24    21    1
     9    30    27    1
    10    23    21    1
    11    15    21    1
    12    15    16    1
    13    15     1    1
    14    27    25    1
    15    27    29    1
    16    21    22    1
    17    42    41    1
    18    41    43    1
    19    41    35    1
    20    25     1    1
    21    25    31    1
    22    39    37    1
    23    33    31    1
    24     1    35    1
    25     1     3    1
    26    35    37    1
    27    35    36    1
    28    31    32    1
    29    31    34    1
    30    37    40    1
    31    37    38    1
    32     5     4    1
    33     3     4    1
    34     3     9    2
    35     4     6    2
    36     9    10    1
    37     9     8    1
    38    11    10    1
    39     6     7    1
    40     6     8    1
    41    10    12    2
    42     8    14    1
    43    53    51    1
    44    50    47    1
    45    54    51    1
    46    12    14    1
    47    12    13    1
    48    51    52    1
    49    51    45    1
    50    49    47    1
    51    14     2    1
    52    47    45    1
    53    47    48    1
    54    59    57    1
    55    45     2    1
    56    45    46    1
    57    58    57    1
    58    57    60    1
    59    57    55    1
    60     2    55    1
    61     2    65    1
    62    66    65    1
    63    55    56    1
    64    55    61    1
    65    64    61    1
    66    72    71    1
    67    65    71    1
    68    65    67    1
    69    61    63    1
    70    61    62    1
    71    71    73    1
    72    71    74    1
    73    68    67    1
    74    67    69    1
    75    67    70    1
