@<TRIPOS>MOLECULE
2,3,4
 25 25 0 0 0
SMALL
GASTEIGER

@<TRIPOS>ATOM
      1 C           7.0903    2.5167    1.5631 C.2     1  UNL1       -0.0477
      2 C           6.0361    2.5204    0.7091 C.2     1  UNL1       -0.0584
      3 C           4.8005    2.2276    1.4745 C.3     1  UNL1        0.0231
      4 C           5.2566    2.1304    2.8830 C.2     1  UNL1       -0.0584
      5 C           6.6073    2.2670    2.9131 C.2     1  UNL1       -0.0477
      6 C           8.5353    2.7071    1.2519 C.3     1  UNL1       -0.0395
      7 C           6.0252    2.8054   -0.7587 C.3     1  UNL1       -0.0424
      8 C           3.6015    3.1066    1.1784 C.3     1  UNL1       -0.0510
      9 C           4.3148    1.9661    4.0347 C.3     1  UNL1       -0.0424
     10 C           7.5160    2.1917    4.0919 C.3     1  UNL1       -0.0395
     11 H           8.9562    3.5030    1.8654 H       1  UNL1        0.0278
     12 H           8.6827    2.9595    0.2059 H       1  UNL1        0.0278
     13 H           9.0862    1.7911    1.4680 H       1  UNL1        0.0278
     14 H           5.2997    2.1757   -1.2727 H       1  UNL1        0.0275
     15 H           7.0031    2.6219   -1.1959 H       1  UNL1        0.0275
     16 H           5.7612    3.8487   -0.9420 H       1  UNL1        0.0275
     17 H           3.3264    3.0434    0.1263 H       1  UNL1        0.0242
     18 H           3.8486    4.1444    1.4085 H       1  UNL1        0.0242
     19 H           2.7456    2.8141    1.7841 H       1  UNL1        0.0242
     20 H           4.7886    1.4199    4.8469 H       1  UNL1        0.0275
     21 H           3.4264    1.4142    3.7305 H       1  UNL1        0.0275
     22 H           4.0050    2.9412    4.4160 H       1  UNL1        0.0275
     23 H           6.9687    1.9259    4.9918 H       1  UNL1        0.0278
     24 H           8.0075    3.1511    4.2559 H       1  UNL1        0.0278
     25 H           8.2910    1.4453    3.9209 H       1  UNL1        0.0278
@<TRIPOS>BOND
     1    14     7    1
     2    15     7    1
     3    16     7    1
     4     7     2    1
     5    17     8    1
     6    12     6    1
     7     2     3    1
     8     2     1    2
     9     8    18    1
    10     8     3    1
    11     8    19    1
    12     6    13    1
    13     6     1    1
    14     6    11    1
    15     3     4    1
    16     1     5    1
    17     4     5    2
    18     4     9    1
    19     5    10    1
    20    21     9    1
    21    25    10    1
    22     9    22    1
    23     9    20    1
    24    10    24    1
    25    10    23    1
