@<TRIPOS>MOLECULE
1,2,3
 8 7 0 0 0
SMALL
GASTEIGER

@<TRIPOS>ATOM
      1 C          12.6744   11.9215   10.2359 C.3     1  UNL1       -0.0497
      2 C          13.8724   12.1578   10.9118 C.3     1  UNL1       -0.0382
      3 C          14.5197   13.3964   10.6793 C.3     1  UNL1       -0.0497
      4 H          14.3484   11.3738   11.4963 H       1  UNL1        0.0303
      5 H          12.1539   10.9881   10.4081 H       1  UNL1        0.0268
      6 H          13.8785   14.2777   10.6651 H       1  UNL1        0.0268
      7 H          15.4589   13.5670   11.1991 H       1  UNL1        0.0268
      8 H          12.0174   12.7698   10.0391 H       1  UNL1        0.0268
@<TRIPOS>BOND
     1     8     1    1
     2     1     5    1
     3     1     2    1
     4     6     3    1
     5     3     2    1
     6     3     7    1
     7     2     4    1
