@<TRIPOS>MOLECULE
1,2,5
 25 25 0 0 0
SMALL
GASTEIGER

@<TRIPOS>ATOM
      1 C           3.5317   12.2797   34.4587 C.3     1  UNL1        0.0231
      2 C           3.5449   13.3051   33.4045 C.2     1  UNL1       -0.0584
      3 C           3.5386   12.6898   32.1826 C.2     1  UNL1       -0.0477
      4 C           3.5754   11.2599   32.3780 C.2     1  UNL1       -0.0477
      5 C           3.5970   11.0020   33.7218 C.2     1  UNL1       -0.0584
      6 C           4.4511   12.4541   35.6526 C.3     1  UNL1       -0.0510
      7 H           5.4874   12.5016   35.3104 H       1  UNL1        0.0242
      8 H           4.3662   11.6176   36.3467 H       1  UNL1        0.0242
      9 H           4.2283   13.3724   36.1960 H       1  UNL1        0.0242
     10 C           3.5837   14.7796   33.6434 C.3     1  UNL1       -0.0424
     11 H           3.8895   15.0055   34.6618 H       1  UNL1        0.0275
     12 H           2.5966   15.2268   33.4809 H       1  UNL1        0.0275
     13 H           4.2805   15.2544   32.9534 H       1  UNL1        0.0275
     14 C           3.5226   13.4053   30.8707 C.3     1  UNL1       -0.0395
     15 H           4.4587   13.9451   30.7227 H       1  UNL1        0.0278
     16 H           2.7139   14.1349   30.8488 H       1  UNL1        0.0278
     17 H           3.3947   12.7198   30.0380 H       1  UNL1        0.0278
     18 C           3.6351   10.2357   31.2889 C.3     1  UNL1       -0.0395
     19 H           3.2006   10.6069   30.3631 H       1  UNL1        0.0278
     20 H           3.1035    9.3303   31.5780 H       1  UNL1        0.0278
     21 H           4.6716    9.9626   31.0840 H       1  UNL1        0.0278
     22 C           3.7948    9.6720   34.3833 C.3     1  UNL1       -0.0424
     23 H           4.8615    9.4654   34.4972 H       1  UNL1        0.0275
     24 H           3.3689    8.8698   33.7833 H       1  UNL1        0.0275
     25 H           3.3415    9.6403   35.3748 H       1  UNL1        0.0275
@<TRIPOS>BOND
     1    17    14    1
     2    19    18    1
     3    15    14    1
     4    16    14    1
     5    14     3    1
     6    21    18    1
     7    18    20    1
     8    18     4    1
     9     3     4    1
    10     3     2    2
    11     4     5    2
    12    13    10    1
    13     2    10    1
    14     2     1    1
    15    12    10    1
    16    10    11    1
    17     5    22    1
    18     5     1    1
    19    24    22    1
    20    22    23    1
    21    22    25    1
    22     1     6    1
    23     7     6    1
    24     6     9    1
    25     6     8    1
