@<TRIPOS>MOLECULE
1,2,3
 25 25 0 0 0
SMALL
GASTEIGER

@<TRIPOS>ATOM
      1 C          -2.5425   -0.9274    9.7638 C.2     1  UNL1       -0.0584
      2 C          -3.8513   -0.4013    9.3457 C.3     1  UNL1        0.0231
      3 C          -4.5978   -1.5836    8.8759 C.2     1  UNL1       -0.0584
      4 C          -3.8552   -2.7013    9.1471 C.2     1  UNL1       -0.0477
      5 C          -2.5866   -2.2940    9.7025 C.2     1  UNL1       -0.0477
      6 C          -1.3275   -0.0961   10.0357 C.3     1  UNL1       -0.0424
      7 H          -0.6716   -0.1117    9.1621 H       1  UNL1        0.0275
      8 H          -0.7587   -0.4826   10.8809 H       1  UNL1        0.0275
      9 H          -1.5804    0.9405   10.2466 H       1  UNL1        0.0275
     10 C          -3.9396    0.8930    8.5611 C.3     1  UNL1       -0.0510
     11 H          -3.3924    1.6954    9.0572 H       1  UNL1        0.0242
     12 H          -4.9779    1.2051    8.4414 H       1  UNL1        0.0242
     13 H          -3.5065    0.7550    7.5678 H       1  UNL1        0.0242
     14 C          -5.8782   -1.4844    8.1075 C.3     1  UNL1       -0.0424
     15 H          -6.2377   -2.4689    7.8199 H       1  UNL1        0.0275
     16 H          -5.7195   -0.9069    7.1951 H       1  UNL1        0.0275
     17 H          -6.6626   -0.9918    8.6882 H       1  UNL1        0.0275
     18 C          -4.2016   -4.1350    8.9048 C.3     1  UNL1       -0.0395
     19 H          -3.4060   -4.6231    8.3425 H       1  UNL1        0.0278
     20 H          -5.1263   -4.2318    8.3415 H       1  UNL1        0.0278
     21 H          -4.3175   -4.6711    9.8489 H       1  UNL1        0.0278
     22 C          -1.4945   -3.2438   10.0707 C.3     1  UNL1       -0.0395
     23 H          -1.9013   -4.1454   10.5251 H       1  UNL1        0.0278
     24 H          -0.7995   -2.7805   10.7680 H       1  UNL1        0.0278
     25 H          -0.9324   -3.5413    9.1835 H       1  UNL1        0.0278
@<TRIPOS>BOND
     1    16    14    1
     2    13    10    1
     3    15    14    1
     4    14    17    1
     5    14     3    1
     6    20    18    1
     7    19    18    1
     8    12    10    1
     9    10    11    1
    10    10     2    1
    11     3     4    2
    12     3     2    1
    13    18     4    1
    14    18    21    1
    15     4     5    1
    16     7     6    1
    17    25    22    1
    18     2     1    1
    19     5     1    2
    20     5    22    1
    21     1     6    1
    22     6     9    1
    23     6     8    1
    24    22    23    1
    25    22    24    1
