@<TRIPOS>MOLECULE
1,6,13
 55 55 0 0 0
SMALL
GASTEIGER

@<TRIPOS>ATOM
      1 C           5.5455   12.6835    4.5619 C.3     1  UNL1        0.0000
      2 C           6.8383   12.6465    5.2146 C.2     1  UNL1        0.0000
      3 O           7.6897   11.7768    5.1616 O.2     1  UNL1        0.0000
      4 O           7.0450   13.7923    5.9290 O.3     1  UNL1        0.0000
      5 C           8.3118   13.9148    6.5440 C.3     1  UNL1        0.0000
      6 C           4.8606   11.4815    4.1235 C.3     1  UNL1        0.0000
      7 C           5.2050   10.1477    4.5853 C.2     1  UNL1        0.0000
      8 C           4.5882    9.0227    4.2026 C.2     1  UNL1        0.0000
      9 SI          4.9001    7.3094    4.9122 Si      1  UNL1        0.0000
     10 C           3.2591    6.7070    5.6797 C.3     1  UNL1        0.0000
     11 C           6.2792    7.3467    6.2261 C.3     1  UNL1        0.0000
     12 C           5.4035    6.1282    3.4929 C.3     1  UNL1        0.0000
     13 C           3.8194   11.7175    3.1927 C.3     1  UNL1        0.0000
     14 C           2.5547   11.2883    3.0473 C.3     1  UNL1        0.0000
     15 C           1.7732   10.7530    4.1763 C.ar    1  UNL1        0.0000
     16 C           2.0551   11.1434    5.4830 C.ar    1  UNL1        0.0000
     17 C           1.3396   10.6161    6.5398 C.ar    1  UNL1        0.0000
     18 C           0.3300    9.6955    6.3112 C.ar    1  UNL1        0.0000
     19 C           0.0333    9.3136    5.0135 C.ar    1  UNL1        0.0000
     20 C           0.7447    9.8399    3.9524 C.ar    1  UNL1        0.0000
     21 C           1.9074   11.3269    1.7923 C.1     1  UNL1        0.0000
     22 C           1.3437   11.2936    0.7191 C.1     1  UNL1        0.0000
     23 SI          0.3671   11.1944   -0.8470 Si      1  UNL1        0.0000
     24 C          -0.7257    9.6341   -0.7640 C.3     1  UNL1        0.0000
     25 C           1.5404   11.0605   -2.3475 C.3     1  UNL1        0.0000
     26 C          -0.7339   12.7471   -0.9892 C.3     1  UNL1        0.0000
     27 H           4.9262   13.4989    4.9385 H       1  UNL1        0.0000
     28 H           8.2830   14.8356    7.1217 H       1  UNL1        0.0000
     29 H           9.1016   13.9657    5.7897 H       1  UNL1        0.0000
     30 H           8.5080   13.0598    7.1957 H       1  UNL1        0.0000
     31 H           5.9873   10.1037    5.3307 H       1  UNL1        0.0000
     32 H           3.8179    9.1044    3.4437 H       1  UNL1        0.0000
     33 H           3.3599    5.7219    6.1249 H       1  UNL1        0.0000
     34 H           2.4763    6.6523    4.9294 H       1  UNL1        0.0000
     35 H           2.9163    7.3888    6.4523 H       1  UNL1        0.0000
     36 H           6.5027    6.3512    6.5983 H       1  UNL1        0.0000
     37 H           5.9902    7.9573    7.0760 H       1  UNL1        0.0000
     38 H           7.1982    7.7601    5.8220 H       1  UNL1        0.0000
     39 H           5.4688    5.1018    3.8412 H       1  UNL1        0.0000
     40 H           6.3704    6.3913    3.0733 H       1  UNL1        0.0000
     41 H           4.6768    6.1525    2.6859 H       1  UNL1        0.0000
     42 H           2.8327   11.8710    5.6648 H       1  UNL1        0.0000
     43 H           1.5681   10.9269    7.5494 H       1  UNL1        0.0000
     44 H          -0.2260    9.2814    7.1399 H       1  UNL1        0.0000
     45 H          -0.7560    8.5988    4.8285 H       1  UNL1        0.0000
     46 H           0.5156    9.5394    2.9398 H       1  UNL1        0.0000
     47 H          -1.3498    9.5352   -1.6478 H       1  UNL1        0.0000
     48 H          -1.3823    9.6645    0.1004 H       1  UNL1        0.0000
     49 H          -0.1222    8.7347   -0.6850 H       1  UNL1        0.0000
     50 H           0.9814   10.9447   -3.2722 H       1  UNL1        0.0000
     51 H           2.1962   10.1995   -2.2542 H       1  UNL1        0.0000
     52 H           2.1691   11.9395   -2.4543 H       1  UNL1        0.0000
     53 H          -1.2180   12.8066   -1.9601 H       1  UNL1        0.0000
     54 H          -0.1632   13.6602   -0.8479 H       1  UNL1        0.0000
     55 H          -1.5143   12.7345   -0.2340 H       1  UNL1        0.0000
@<TRIPOS>BOND
     1    50    25    1
     2    52    25    1
     3    25    51    1
     4    25    23    1
     5    53    26    1
     6    47    24    1
     7    26    54    1
     8    26    23    1
     9    26    55    1
    10    23    24    1
    11    23    22    1
    12    24    49    1
    13    24    48    1
    14    22    21    3
    15    21    14    1
    16    41    12    1
    17    46    20    1
    18    14    13    1
    19    14    15    1
    20    40    12    1
    21    13     6    1
    22    32     8    1
    23    12    39    1
    24    12     9    1
    25    20    15   ar
    26    20    19   ar
    27     6     1    1
    28     6     7    1
    29    15    16   ar
    30     8     7    2
    31     8     9    1
    32     1    27    1
    33     1     2    1
    34     7    31    1
    35    45    19    1
    36     9    10    1
    37     9    11    1
    38    34    10    1
    39    19    18   ar
    40     3     2    2
    41     2     4    1
    42    16    42    1
    43    16    17   ar
    44    10    33    1
    45    10    35    1
    46    29     5    1
    47    38    11    1
    48     4     5    1
    49    11    36    1
    50    11    37    1
    51    18    17   ar
    52    18    44    1
    53    17    43    1
    54     5    28    1
    55     5    30    1
