@<TRIPOS>MOLECULE
5,7,8
 34 34 0 0 0
SMALL
GASTEIGER

@<TRIPOS>ATOM
      1 SI          9.1919   15.1896    9.8106 Si      1  UNL1        0.0000
      2 SI          5.9576   12.3869    6.1066 Si      1  UNL1        0.0000
      3 C           5.9413   12.8581    9.0388 C.2     1  UNL1        0.0000
      4 H           4.8841   12.6686    9.1572 H       1  UNL1        0.0000
      5 C           6.7594   13.5010    9.9656 C.3     1  UNL1        0.0000
      6 H           6.4342   13.8748   10.9272 H       1  UNL1        0.0000
      7 C           8.0249   13.7836    9.3504 C.2     1  UNL1        0.0000
      8 C           7.9189   13.2657    8.0249 C.2     1  UNL1        0.0000
      9 H           8.6338   13.4297    7.2323 H       1  UNL1        0.0000
     10 C           6.6554   12.6813    7.8232 C.2     1  UNL1        0.0000
     11 C           8.2026   16.4282   10.8912 C.3     1  UNL1        0.0000
     12 H           8.7789   17.3321   11.0584 H       1  UNL1        0.0000
     13 H           7.9549   16.0190   11.8654 H       1  UNL1        0.0000
     14 H           7.2732   16.7167   10.4109 H       1  UNL1        0.0000
     15 C          10.8207   14.7818   10.7300 C.3     1  UNL1        0.0000
     16 H          11.4262   14.0628   10.1874 H       1  UNL1        0.0000
     17 H          10.6570   14.3928   11.7301 H       1  UNL1        0.0000
     18 H          11.4062   15.6905   10.8346 H       1  UNL1        0.0000
     19 C           9.6768   16.0748    8.1835 C.3     1  UNL1        0.0000
     20 H          10.3445   15.4626    7.5858 H       1  UNL1        0.0000
     21 H          10.1913   17.0078    8.3893 H       1  UNL1        0.0000
     22 H           8.8066   16.3056    7.5774 H       1  UNL1        0.0000
     23 C           4.1207   11.8361    6.1656 C.3     1  UNL1        0.0000
     24 H           3.6261   12.1076    5.2388 H       1  UNL1        0.0000
     25 H           3.5772   12.3225    6.9694 H       1  UNL1        0.0000
     26 H           4.0040   10.7630    6.2840 H       1  UNL1        0.0000
     27 C           6.9463   11.0966    5.0990 C.3     1  UNL1        0.0000
     28 H           6.6718   11.1526    4.0502 H       1  UNL1        0.0000
     29 H           6.7629   10.0766    5.4232 H       1  UNL1        0.0000
     30 H           8.0147   11.2770    5.1655 H       1  UNL1        0.0000
     31 C           6.0322   14.0488    5.1630 C.3     1  UNL1        0.0000
     32 H           5.6311   13.9550    4.1582 H       1  UNL1        0.0000
     33 H           7.0542   14.4037    5.0767 H       1  UNL1        0.0000
     34 H           5.4631   14.8186    5.6752 H       1  UNL1        0.0000
@<TRIPOS>BOND
     1    28    27    1
     2    32    31    1
     3    33    31    1
     4    27    30    1
     5    27    29    1
     6    27     2    1
     7    31    34    1
     8    31     2    1
     9    24    23    1
    10     2    23    1
    11     2    10    1
    12    23    26    1
    13    23    25    1
    14     9     8    1
    15    22    19    1
    16    20    19    1
    17    10     8    1
    18    10     3    2
    19     8     7    2
    20    19    21    1
    21    19     1    1
    22     3     4    1
    23     3     5    1
    24     7     1    1
    25     7     5    1
    26     1    15    1
    27     1    11    1
    28     5     6    1
    29    16    15    1
    30    14    11    1
    31    15    18    1
    32    15    17    1
    33    11    12    1
    34    11    13    1
