@<TRIPOS>MOLECULE
1,4,7
 18 17 0 0 0
SMALL
GASTEIGER

@<TRIPOS>ATOM
      1 C          -0.1090    3.1132    8.9978 C.3     1  UNL1       -0.0313
      2 C          -0.7489    4.2955    9.6402 C.2     1  UNL1       -0.0874
      3 C          -1.1878    5.3158    8.8855 C.2     1  UNL1       -0.0843
      4 C          -0.9878    5.2487    7.4106 C.3     1  UNL1       -0.0166
      5 C          -0.8287    6.6029    6.7177 C.3     1  UNL1       -0.0462
      6 C          -0.1086    6.3897    5.3751 C.3     1  UNL1       -0.0525
      7 C           1.2657    5.7192    5.5784 C.3     1  UNL1       -0.0530
      8 H           0.3110    2.4483    9.7612 H       1  UNL1        0.0310
      9 H          -0.8933    2.5402    8.4704 H       1  UNL1        0.0310
     10 H          -0.8877    4.3063   10.7200 H       1  UNL1        0.0569
     11 H          -1.6842    6.1755    9.3300 H       1  UNL1        0.0572
     12 H          -1.8062    4.6785    6.9332 H       1  UNL1        0.0349
     13 H          -1.7880    7.1106    6.5430 H       1  UNL1        0.0271
     14 H          -0.2167    7.2615    7.3477 H       1  UNL1        0.0271
     15 H          -0.7420    5.7488    4.7477 H       1  UNL1        0.0265
     16 H          -0.0177    7.3551    4.8565 H       1  UNL1        0.0265
     17 H           1.6032    5.3516    4.5995 H       1  UNL1        0.0265
     18 H           1.9816    6.5129    5.8467 H       1  UNL1        0.0265
@<TRIPOS>BOND
     1    17     7    1
     2    15     6    1
     3    16     6    1
     4     6     7    1
     5     6     5    1
     6     7    18    1
     7    13     5    1
     8     5    14    1
     9     5     4    1
    10    12     4    1
    11     4     3    1
    12     9     1    1
    13     3    11    1
    14     3     2    2
    15     1     2    1
    16     1     8    1
    17     2    10    1
