@<TRIPOS>MOLECULE
2,3,4
 10 10 0 0 0
SMALL
GASTEIGER

@<TRIPOS>ATOM
      1 C           1.8051    1.6998    7.5860 C.2     1  UNL1       -0.0654
      2 C           1.9005    2.5798    6.5017 C.2     1  UNL1       -0.0763
      3 C           0.7282    3.3751    6.4680 C.3     1  UNL1        0.0054
      4 C          -0.0882    2.9618    7.5583 C.2     1  UNL1       -0.0763
      5 C           0.5887    1.9386    8.2414 C.2     1  UNL1       -0.0654
      6 H           2.5742    1.0183    7.9143 H       1  UNL1        0.0615
      7 H           2.7756    2.7249    5.8861 H       1  UNL1        0.0578
      8 H           0.5898    4.2671    5.8697 H       1  UNL1        0.0394
      9 H          -0.9599    3.4834    7.9294 H       1  UNL1        0.0578
     10 H           0.2688    1.4825    9.1653 H       1  UNL1        0.0615
@<TRIPOS>BOND
     1     8     3    1
     2     7     2    1
     3     3     2    1
     4     3     4    1
     5     2     1    2
     6     4     9    1
     7     4     5    2
     8     1     6    1
     9     1     5    1
    10     5    10    1
