@<TRIPOS>MOLECULE
3,4,5
 10 10 0 0 0
SMALL
GASTEIGER

@<TRIPOS>ATOM
      1 C          10.7791    0.7452    7.1822 C.2     1  UNL1       -0.0763
      2 C          10.0731    0.0709    6.1922 C.2     1  UNL1       -0.0654
      3 C          10.0137    0.8982    5.0500 C.2     1  UNL1       -0.0654
      4 C          10.7030    2.0862    5.3376 C.2     1  UNL1       -0.0763
      5 C          11.1610    2.0026    6.6691 C.3     1  UNL1        0.0054
      6 H          11.0322    0.3636    8.1584 H       1  UNL1        0.0578
      7 H           9.6850   -0.9329    6.2545 H       1  UNL1        0.0615
      8 H           9.5976    0.6177    4.0953 H       1  UNL1        0.0615
      9 H          10.9360    2.8747    4.6395 H       1  UNL1        0.0578
     10 H          11.7980    2.7207    7.1635 H       1  UNL1        0.0394
@<TRIPOS>BOND
     1     8     3    1
     2     9     4    1
     3     3     4    2
     4     3     2    1
     5     4     5    1
     6     2     7    1
     7     2     1    2
     8     5    10    1
     9     5     1    1
    10     1     6    1
