@<TRIPOS>MOLECULE
3,4,5
 10 10 0 0 0
SMALL
GASTEIGER

@<TRIPOS>ATOM
      1 C           9.9123    9.7064   10.1263 C.2     1  UNL1       -0.0654
      2 C          11.2972    9.9252   10.1030 C.2     1  UNL1       -0.0654
      3 C          11.8959    9.0168   10.9761 C.2     1  UNL1       -0.0763
      4 C          10.8721    8.2308   11.5630 C.3     1  UNL1        0.0054
      5 C           9.6446    8.6666   11.0173 C.2     1  UNL1       -0.0763
      6 H           9.1830   10.2244    9.5257 H       1  UNL1        0.0615
      7 H          11.8092   10.6541    9.4966 H       1  UNL1        0.0615
      8 H          12.9563    8.8672   11.1121 H       1  UNL1        0.0578
      9 H          11.0242    7.3307   12.1384 H       1  UNL1        0.0394
     10 H           8.6798    8.2230   11.2027 H       1  UNL1        0.0578
@<TRIPOS>BOND
     1     7     2    1
     2     6     1    1
     3     2     1    1
     4     2     3    2
     5     1     5    2
     6     3     8    1
     7     3     4    1
     8     5    10    1
     9     5     4    1
    10     4     9    1
