@<TRIPOS>MOLECULE
4,6,24
 48 51 0 0 0
SMALL
GASTEIGER

@<TRIPOS>ATOM
      1 N           5.2676    7.4199    2.3350 N.pl3   1  UNL1       -0.3070
      2 N           4.7163    9.4508    1.9481 N.pl3   1  UNL1       -0.2765
      3 C           4.4165    6.5647    4.9846 C.2     1  UNL1       -0.0418
      4 C           3.0977    6.1728    5.2226 C.2     1  UNL1       -0.0719
      5 H           2.7051    5.1778    5.0516 H       1  UNL1        0.0581
      6 C           2.3965    7.2172    5.8922 C.3     1  UNL1        0.0136
      7 H           1.4860    7.0808    6.4662 H       1  UNL1        0.0401
      8 C           3.3452    8.2585    6.1338 C.ar    1  UNL1       -0.0323
      9 C           3.2699    9.4589    6.8521 C.ar    1  UNL1       -0.0574
     10 H           2.3403    9.7538    7.3225 H       1  UNL1        0.0621
     11 C           4.3963   10.2354    6.9789 C.ar    1  UNL1       -0.0614
     12 H           4.3582   11.1545    7.5468 H       1  UNL1        0.0618
     13 C           5.6100    9.8524    6.3883 C.ar    1  UNL1       -0.0612
     14 H           6.4764   10.4880    6.5119 H       1  UNL1        0.0618
     15 C           5.7150    8.6863    5.6679 C.ar    1  UNL1       -0.0541
     16 H           6.6633    8.4029    5.2275 H       1  UNL1        0.0624
     17 C           4.5931    7.8581    5.5385 C.ar    1  UNL1       -0.0183
     18 C           5.4292    5.8023    4.1924 C.3     1  UNL1       -0.0116
     19 H           5.3507    4.7307    4.3899 H       1  UNL1        0.0328
     20 H           6.4369    6.1272    4.4599 H       1  UNL1        0.0328
     21 C           5.2076    6.0215    2.6811 C.3     1  UNL1        0.0179
     22 H           5.9674    5.4874    2.1025 H       1  UNL1        0.0467
     23 H           4.2154    5.6462    2.4059 H       1  UNL1        0.0467
     24 C           4.2118    8.2605    2.3527 C.3     1  UNL1        0.1912
     25 C           6.0602    9.3563    1.7025 C.2     1  UNL1        0.0128
     26 H           6.6434   10.1862    1.3606 H       1  UNL1        0.0797
     27 C           6.4074    8.0715    1.9522 C.2     1  UNL1        0.0082
     28 H           7.3564    7.5807    1.8800 H       1  UNL1        0.0793
     29 C           3.9346   10.6136    1.6977 C.ar    1  UNL1        0.0414
     30 C           3.0668   10.6226    0.6026 C.ar    1  UNL1       -0.0286
     31 C           2.3136   11.7639    0.3642 C.ar    1  UNL1       -0.0541
     32 H           1.6353   11.7754   -0.4765 H       1  UNL1        0.0623
     33 C           2.4076   12.8808    1.1804 C.ar    1  UNL1       -0.0498
     34 C           3.2952   12.8516    2.2473 C.ar    1  UNL1       -0.0541
     35 H           3.3810   13.7175    2.8870 H       1  UNL1        0.0623
     36 C           4.0664   11.7334    2.5222 C.ar    1  UNL1       -0.0286
     37 C           2.9416    9.4366   -0.3065 C.3     1  UNL1       -0.0379
     38 H           2.2699    8.6968    0.1346 H       1  UNL1        0.0278
     39 H           3.9074    8.9624   -0.4745 H       1  UNL1        0.0278
     40 H           2.5310    9.7406   -1.2661 H       1  UNL1        0.0278
     41 C           1.5583   14.0895    0.9388 C.3     1  UNL1       -0.0397
     42 H           0.7637   14.1329    1.6837 H       1  UNL1        0.0278
     43 H           1.1020   14.0572   -0.0471 H       1  UNL1        0.0278
     44 H           2.1478   14.9999    1.0270 H       1  UNL1        0.0278
     45 C           5.0130   11.7244    3.6796 C.3     1  UNL1       -0.0379
     46 H           4.9111   10.8065    4.2572 H       1  UNL1        0.0278
     47 H           4.8192   12.5677    4.3363 H       1  UNL1        0.0278
     48 H           6.0457   11.7920    3.3369 H       1  UNL1        0.0278
@<TRIPOS>BOND
     1    40    37    1
     2    32    31    1
     3    39    37    1
     4    37    38    1
     5    37    30    1
     6    43    41    1
     7    31    30   ar
     8    31    33   ar
     9    30    29   ar
    10    41    44    1
    11    41    33    1
    12    41    42    1
    13    33    34   ar
    14    26    25    1
    15    29     2    1
    16    29    36   ar
    17    25     2    1
    18    25    27    2
    19    28    27    1
    20     2    24    1
    21    27     1    1
    22    22    21    1
    23    34    36   ar
    24    34    35    1
    25     1    24    1
    26     1    21    1
    27    23    21    1
    28    36    45    1
    29    21    18    1
    30    48    45    1
    31    45    46    1
    32    45    47    1
    33    18    19    1
    34    18    20    1
    35    18     3    1
    36     3     4    2
    37     3    17    1
    38     5     4    1
    39     4     6    1
    40    16    15    1
    41    17    15   ar
    42    17     8   ar
    43    15    13   ar
    44     6     8    1
    45     6     7    1
    46     8     9   ar
    47    13    14    1
    48    13    11   ar
    49     9    11   ar
    50     9    10    1
    51    11    12    1
