@<TRIPOS>MOLECULE
4,6,24
 48 51 0 0 0
SMALL
GASTEIGER

@<TRIPOS>ATOM
      1 N           3.2039   15.9459    8.7973 N.pl3   1  UNL1       -0.3070
      2 N           2.7247   13.8945    8.4301 N.pl3   1  UNL1       -0.2765
      3 C           2.2577   16.7544   11.4479 C.2     1  UNL1       -0.0418
      4 C           0.9340   17.1507   11.7007 C.2     1  UNL1       -0.0719
      5 H           0.5492   18.1506   11.5426 H       1  UNL1        0.0581
      6 C           0.2532   16.1277   12.4110 C.3     1  UNL1        0.0136
      7 H          -0.6666   16.2621   12.9661 H       1  UNL1        0.0401
      8 C           1.1964   15.0854   12.6463 C.ar    1  UNL1       -0.0323
      9 C           1.1392   13.9101   13.4118 C.ar    1  UNL1       -0.0574
     10 H           0.2169   13.6294   13.9032 H       1  UNL1        0.0621
     11 C           2.2713   13.1479   13.5573 C.ar    1  UNL1       -0.0614
     12 H           2.2456   12.2507   14.1594 H       1  UNL1        0.0618
     13 C           3.4805   13.5191   12.9465 C.ar    1  UNL1       -0.0612
     14 H           4.3533   12.8975   13.0930 H       1  UNL1        0.0618
     15 C           3.5727   14.6577   12.1840 C.ar    1  UNL1       -0.0541
     16 H           4.5177   14.9361   11.7330 H       1  UNL1        0.0624
     17 C           2.4411   15.4722   12.0264 C.ar    1  UNL1       -0.0183
     18 C           3.2815   17.5337   10.6849 C.3     1  UNL1       -0.0116
     19 H           4.2858   17.2131   10.9719 H       1  UNL1        0.0328
     20 H           3.1900   18.6017   10.8969 H       1  UNL1        0.0328
     21 C           3.0981   17.3364    9.1658 C.3     1  UNL1        0.0179
     22 H           2.0986   17.6928    8.8818 H       1  UNL1        0.0467
     23 H           3.8555   17.8993    8.6126 H       1  UNL1        0.0467
     24 C           2.2020   15.0443    8.9215 C.3     1  UNL1        0.1912
     25 C           4.0223   14.0709    8.0313 C.2     1  UNL1        0.0128
     26 H           4.6052   13.2802    7.6053 H       1  UNL1        0.0797
     27 C           4.3253   15.3690    8.2697 C.2     1  UNL1        0.0082
     28 H           5.2311   15.9144    8.0991 H       1  UNL1        0.0793
     29 C           1.9879   12.6954    8.2125 C.ar    1  UNL1        0.0414
     30 C           1.0983   12.6454    7.1376 C.ar    1  UNL1       -0.0286
     31 C           0.3803   11.4771    6.9269 C.ar    1  UNL1       -0.0541
     32 H          -0.3171   11.4332    6.1032 H       1  UNL1        0.0623
     33 C           0.5308   10.3746    7.7541 C.ar    1  UNL1       -0.0498
     34 C           1.4422   10.4450    8.7992 C.ar    1  UNL1       -0.0541
     35 H           1.5719    9.5887    9.4446 H       1  UNL1        0.0623
     36 C           2.1822   11.5908    9.0429 C.ar    1  UNL1       -0.0286
     37 C           3.1541   11.6524   10.1774 C.3     1  UNL1       -0.0379
     38 H           4.1675   11.8265    9.8166 H       1  UNL1        0.0278
     39 H           3.1449   10.7231   10.7399 H       1  UNL1        0.0278
     40 H           2.8973   12.4685   10.8534 H       1  UNL1        0.0278
     41 C          -0.2725    9.1293    7.5423 C.3     1  UNL1       -0.0397
     42 H           0.3806    8.2621    7.4574 H       1  UNL1        0.0278
     43 H          -0.8781    9.2020    6.6429 H       1  UNL1        0.0278
     44 H          -0.9331    8.9663    8.3932 H       1  UNL1        0.0278
     45 C           0.9118   13.8300    6.2388 C.3     1  UNL1       -0.0379
     46 H           0.3699   14.6159    6.7696 H       1  UNL1        0.0278
     47 H           0.3414   13.5512    5.3572 H       1  UNL1        0.0278
     48 H           1.8717   14.2350    5.9197 H       1  UNL1        0.0278
@<TRIPOS>BOND
     1    47    45    1
     2    48    45    1
     3    32    31    1
     4    45    46    1
     5    45    30    1
     6    43    41    1
     7    31    30   ar
     8    31    33   ar
     9    30    29   ar
    10    42    41    1
    11    41    33    1
    12    41    44    1
    13    26    25    1
    14    33    34   ar
    15    25    27    2
    16    25     2    1
    17    28    27    1
    18    29     2    1
    19    29    36   ar
    20    27     1    1
    21     2    24    1
    22    23    21    1
    23     1    24    1
    24     1    21    1
    25    34    36   ar
    26    34    35    1
    27    22    21    1
    28    36    37    1
    29    21    18    1
    30    38    37    1
    31    37    39    1
    32    37    40    1
    33    18    20    1
    34    18    19    1
    35    18     3    1
    36     3     4    2
    37     3    17    1
    38     5     4    1
    39     4     6    1
    40    16    15    1
    41    17    15   ar
    42    17     8   ar
    43    15    13   ar
    44     6     8    1
    45     6     7    1
    46     8     9   ar
    47    13    14    1
    48    13    11   ar
    49     9    11   ar
    50     9    10    1
    51    11    12    1
