@<TRIPOS>MOLECULE
4,5,6
 34 34 0 0 0
SMALL
GASTEIGER

@<TRIPOS>ATOM
      1 SI          6.3692   10.3034    2.3712 Si      1  UNL1        0.0000
      2 C           8.1485   13.0891    0.1629 C.2     1  UNL1        0.0000
      3 C           9.1659   12.8301    1.1321 C.2     1  UNL1        0.0000
      4 C           8.6032   12.1684    2.2002 C.2     1  UNL1        0.0000
      5 C           7.1656   11.9737    1.9447 C.3     1  UNL1        0.0000
      6 C           6.9542   12.5816    0.6232 C.2     1  UNL1        0.0000
      7 C           8.4011   13.8441   -1.1023 C.3     1  UNL1        0.0000
      8 H           8.6477   14.8830   -0.8759 H       1  UNL1        0.0000
      9 H           7.5337   13.8278   -1.7574 H       1  UNL1        0.0000
     10 H           9.2437   13.4130   -1.6416 H       1  UNL1        0.0000
     11 C          10.5864   13.2609    0.9584 C.3     1  UNL1        0.0000
     12 H          11.0091   12.8223    0.0535 H       1  UNL1        0.0000
     13 H          11.2007   12.9558    1.8023 H       1  UNL1        0.0000
     14 H          10.6412   14.3462    0.8608 H       1  UNL1        0.0000
     15 C           9.3378   11.6027    3.3853 C.3     1  UNL1        0.0000
     16 H           9.7067   10.5984    3.1633 H       1  UNL1        0.0000
     17 H           8.6861   11.5361    4.2576 H       1  UNL1        0.0000
     18 H          10.2002   12.2196    3.6378 H       1  UNL1        0.0000
     19 C           5.6582   12.5265   -0.1376 C.3     1  UNL1        0.0000
     20 H           5.6178   11.6253   -0.7539 H       1  UNL1        0.0000
     21 H           5.5599   13.3809   -0.8073 H       1  UNL1        0.0000
     22 H           4.8041   12.5099    0.5400 H       1  UNL1        0.0000
     23 C           7.2632    8.9249    1.3862 C.3     1  UNL1        0.0000
     24 H           7.1938    9.1044    0.3181 H       1  UNL1        0.0000
     25 H           6.8331    7.9490    1.5880 H       1  UNL1        0.0000
     26 H           8.3181    8.8804    1.6363 H       1  UNL1        0.0000
     27 C           6.4576    9.8813    4.2398 C.3     1  UNL1        0.0000
     28 H           5.8276    9.0224    4.4493 H       1  UNL1        0.0000
     29 H           6.0914   10.7034    4.8502 H       1  UNL1        0.0000
     30 H           7.4594    9.6268    4.5682 H       1  UNL1        0.0000
     31 C           4.5026   10.1917    1.9572 C.3     1  UNL1        0.0000
     32 H           4.3110   10.1663    0.8907 H       1  UNL1        0.0000
     33 H           3.9454   11.0189    2.3867 H       1  UNL1        0.0000
     34 H           4.0943    9.2783    2.3783 H       1  UNL1        0.0000
@<TRIPOS>BOND
     1     9     7    1
     2    10     7    1
     3     7     8    1
     4     7     2    1
     5    21    19    1
     6    20    19    1
     7    19    22    1
     8    19     6    1
     9    12    11    1
    10     2     6    2
    11     2     3    1
    12    24    23    1
    13     6     5    1
    14    14    11    1
    15    32    31    1
    16    11     3    1
    17    11    13    1
    18     3     4    2
    19    23    25    1
    20    23    26    1
    21    23     1    1
    22     5     4    1
    23     5     1    1
    24    31     1    1
    25    31    34    1
    26    31    33    1
    27     4    15    1
    28     1    27    1
    29    16    15    1
    30    15    18    1
    31    15    17    1
    32    27    28    1
    33    27    30    1
    34    27    29    1
