@<TRIPOS>MOLECULE
1,2,3
 22 22 0 0 0
SMALL
GASTEIGER

@<TRIPOS>ATOM
      1 C           1.8702    5.0590    2.3740 C.2     1  UNL1       -0.0615
      2 C           0.8175    4.0747    2.1938 C.3     1  UNL1        0.0119
      3 C           0.7470    3.8133    0.7672 C.2     1  UNL1       -0.0615
      4 C           1.7123    4.5926    0.1387 C.2     1  UNL1       -0.0480
      5 C           2.4003    5.3557    1.1228 C.2     1  UNL1       -0.0480
      6 C           2.1779    5.7353    3.6853 C.3     1  UNL1       -0.0426
      7 C          -0.3143    2.9649    0.1151 C.3     1  UNL1       -0.0426
      8 C           1.9916    4.6659   -1.3297 C.3     1  UNL1       -0.0395
      9 C           3.4924    6.3324    0.8180 C.3     1  UNL1       -0.0395
     10 H          -0.0605    4.0358    2.8382 H       1  UNL1        0.0400
     11 H           1.7605    5.1672    4.5194 H       1  UNL1        0.0275
     12 H           1.7448    6.7381    3.7048 H       1  UNL1        0.0275
     13 H           3.2528    5.8393    3.8413 H       1  UNL1        0.0275
     14 H           0.1037    2.3291   -0.6669 H       1  UNL1        0.0275
     15 H          -1.0741    3.5987   -0.3481 H       1  UNL1        0.0275
     16 H          -0.8054    2.3275    0.8532 H       1  UNL1        0.0275
     17 H           1.4015    3.9335   -1.8744 H       1  UNL1        0.0278
     18 H           3.0470    4.4901   -1.5413 H       1  UNL1        0.0278
     19 H           1.7435    5.6562   -1.7131 H       1  UNL1        0.0278
     20 H           3.9321    6.7218    1.7324 H       1  UNL1        0.0278
     21 H           3.0993    7.1728    0.2453 H       1  UNL1        0.0278
     22 H           4.2799    5.8718    0.2208 H       1  UNL1        0.0278
@<TRIPOS>BOND
     1    17     8    1
     2    19     8    1
     3    18     8    1
     4     8     4    1
     5    14     7    1
     6    15     7    1
     7     7     3    1
     8     7    16    1
     9     4     3    2
    10     4     5    1
    11    22     9    1
    12    21     9    1
    13     3     2    1
    14     9     5    1
    15     9    20    1
    16     5     1    2
    17     2     1    1
    18     2    10    1
    19     1     6    1
    20     6    12    1
    21     6    13    1
    22     6    11    1
