@<TRIPOS>MOLECULE
1,4,5
 25 25 0 0 0
SMALL
GASTEIGER

@<TRIPOS>ATOM
      1 C           5.5597    3.8361    1.9676 C.2     1  UNL1       -0.0584
      2 C           6.0240    3.1801    0.8500 C.2     1  UNL1       -0.0477
      3 C           7.3960    2.8186    1.0586 C.2     1  UNL1       -0.0477
      4 C           7.7864    3.2498    2.3078 C.2     1  UNL1       -0.0584
      5 C           6.6396    3.9063    2.9611 C.3     1  UNL1        0.0231
      6 C           4.2221    4.4920    2.1734 C.3     1  UNL1       -0.0424
      7 C           5.2827    2.8969   -0.4183 C.3     1  UNL1       -0.0395
      8 C           8.2371    2.1245    0.0350 C.3     1  UNL1       -0.0395
      9 C           9.1753    3.2323    2.8897 C.3     1  UNL1       -0.0424
     10 C           6.8601    5.2268    3.7055 C.3     1  UNL1       -0.0510
     11 H           3.8911    4.3917    3.2133 H       1  UNL1        0.0275
     12 H           3.4652    4.0508    1.5281 H       1  UNL1        0.0275
     13 H           4.2806    5.5568    1.9367 H       1  UNL1        0.0275
     14 H           4.2371    3.1827   -0.3368 H       1  UNL1        0.0278
     15 H           5.3330    1.8395   -0.6833 H       1  UNL1        0.0278
     16 H           5.7238    3.4588   -1.2421 H       1  UNL1        0.0278
     17 H           9.1140    1.6678    0.4884 H       1  UNL1        0.0278
     18 H           8.5806    2.8372   -0.7165 H       1  UNL1        0.0278
     19 H           7.6717    1.3500   -0.4802 H       1  UNL1        0.0278
     20 H           9.1572    3.0599    3.9716 H       1  UNL1        0.0275
     21 H           9.6730    4.1874    2.7046 H       1  UNL1        0.0275
     22 H           9.7798    2.4531    2.4282 H       1  UNL1        0.0275
     23 H           7.6246    5.1381    4.4763 H       1  UNL1        0.0242
     24 H           5.9414    5.5782    4.1756 H       1  UNL1        0.0242
     25 H           7.1849    5.9862    2.9871 H       1  UNL1        0.0242
@<TRIPOS>BOND
     1    16     7    1
     2    18     8    1
     3    15     7    1
     4    19     8    1
     5     7    14    1
     6     7     2    1
     7     8    17    1
     8     8     3    1
     9     2     3    1
    10     2     1    2
    11     3     4    2
    12    12     6    1
    13    13     6    1
    14     1     6    1
    15     1     5    1
    16     6    11    1
    17     4     9    1
    18     4     5    1
    19    22     9    1
    20    21     9    1
    21     9    20    1
    22     5    10    1
    23    25    10    1
    24    10    24    1
    25    10    23    1
