@<TRIPOS>MOLECULE
1,2,5
 25 25 0 0 0
SMALL
GASTEIGER

@<TRIPOS>ATOM
      1 C          -1.4478  -13.2343   -0.3859 C.3     1  UNL1        0.0231
      2 C          -2.5020  -13.0036   -1.3429 C.2     1  UNL1       -0.0584
      3 C          -3.6626  -12.6522   -0.6342 C.2     1  UNL1       -0.0477
      4 C          -3.3603  -12.6460    0.7518 C.2     1  UNL1       -0.0477
      5 C          -2.0098  -12.9912    0.9191 C.2     1  UNL1       -0.0584
      6 C           0.0243  -13.1309   -0.7116 C.3     1  UNL1       -0.0510
      7 C          -2.3074  -12.9293   -2.8345 C.3     1  UNL1       -0.0424
      8 C          -4.9916  -12.2595   -1.2042 C.3     1  UNL1       -0.0395
      9 C          -4.3268  -12.2535    1.8276 C.3     1  UNL1       -0.0395
     10 C          -1.2268  -12.8936    2.2022 C.3     1  UNL1       -0.0424
     11 H           0.2324  -13.4737   -1.7250 H       1  UNL1        0.0242
     12 H           0.6475  -13.6967   -0.0180 H       1  UNL1        0.0242
     13 H           0.3361  -12.0842   -0.6524 H       1  UNL1        0.0242
     14 H          -1.5305  -13.6149   -3.1774 H       1  UNL1        0.0275
     15 H          -2.0089  -11.9195   -3.1265 H       1  UNL1        0.0275
     16 H          -3.2279  -13.1657   -3.3676 H       1  UNL1        0.0275
     17 H          -5.8046  -12.8088   -0.7272 H       1  UNL1        0.0278
     18 H          -5.0318  -12.4447   -2.2746 H       1  UNL1        0.0278
     19 H          -5.1724  -11.1955   -1.0398 H       1  UNL1        0.0278
     20 H          -5.2291  -12.8675    1.7981 H       1  UNL1        0.0278
     21 H          -4.6331  -11.2140    1.6986 H       1  UNL1        0.0278
     22 H          -3.8739  -12.3513    2.8112 H       1  UNL1        0.0278
     23 H          -1.7459  -13.3742    3.0333 H       1  UNL1        0.0275
     24 H          -1.0777  -11.8453    2.4708 H       1  UNL1        0.0275
     25 H          -0.2427  -13.3496    2.1038 H       1  UNL1        0.0275
@<TRIPOS>BOND
     1    16     7    1
     2    14     7    1
     3    15     7    1
     4     7     2    1
     5    18     8    1
     6    11     6    1
     7     2     3    2
     8     2     1    1
     9     8    19    1
    10     8    17    1
    11     8     3    1
    12     6    13    1
    13     6     1    1
    14     6    12    1
    15     3     4    1
    16     1     5    1
    17     4     5    2
    18     4     9    1
    19     5    10    1
    20    21     9    1
    21    20     9    1
    22     9    22    1
    23    25    10    1
    24    10    24    1
    25    10    23    1
