@<TRIPOS>MOLECULE
2,3,6
 22 22 0 0 0
SMALL
GASTEIGER

@<TRIPOS>ATOM
      1 SI         10.7444   14.8749   11.8673 Si      1  UNL1        0.0000
      2 C           9.8633   16.0176   10.6211 C.2     1  UNL1        0.0000
      3 C           8.4967   15.7888   10.1884 C.2     1  UNL1        0.0000
      4 C           7.8468   17.0050   10.0802 C.2     1  UNL1        0.0000
      5 C           8.7508   18.0307   10.4333 C.2     1  UNL1        0.0000
      6 C           9.9608   17.4545   10.7607 C.3     1  UNL1        0.0000
      7 C          11.5412   13.3641   11.0058 C.3     1  UNL1        0.0000
      8 C          12.0946   15.8683   12.7828 C.3     1  UNL1        0.0000
      9 C           9.4272   14.2663   13.1143 C.3     1  UNL1        0.0000
     10 H           8.0320   14.8143   10.1393 H       1  UNL1        0.0000
     11 H           6.8159   17.1517    9.7982 H       1  UNL1        0.0000
     12 H           8.5193   19.0838   10.4540 H       1  UNL1        0.0000
     13 H          10.8254   17.9620   11.1604 H       1  UNL1        0.0000
     14 H          10.8031   12.7754   10.4668 H       1  UNL1        0.0000
     15 H          12.0151   12.7114   11.7324 H       1  UNL1        0.0000
     16 H          12.3028   13.6804   10.2947 H       1  UNL1        0.0000
     17 H          11.6710   16.6763   13.3712 H       1  UNL1        0.0000
     18 H          12.8026   16.2971   12.0799 H       1  UNL1        0.0000
     19 H          12.6496   15.2261   13.4590 H       1  UNL1        0.0000
     20 H           8.8887   15.0962   13.5605 H       1  UNL1        0.0000
     21 H           9.8921   13.7042   13.9169 H       1  UNL1        0.0000
     22 H           8.6976   13.6184   12.6392 H       1  UNL1        0.0000
@<TRIPOS>BOND
     1    11     4    1
     2     4     3    1
     3     4     5    2
     4    10     3    1
     5     3     2    2
     6    16     7    1
     7     5    12    1
     8     5     6    1
     9    14     7    1
    10     2     6    1
    11     2     1    1
    12     6    13    1
    13     7    15    1
    14     7     1    1
    15     1     8    1
    16     1     9    1
    17    18     8    1
    18    22     9    1
    19     8    17    1
    20     8    19    1
    21     9    20    1
    22     9    21    1
