@<TRIPOS>MOLECULE
3,4,5
 10 10 0 0 0
SMALL
GASTEIGER

@<TRIPOS>ATOM
      1 C           0.7815   -1.2292    1.9211 C.2     1  UNL1       -0.0654
      2 C           1.9408   -1.8472    2.4108 C.2     1  UNL1       -0.0654
      3 C           1.6576   -2.3684    3.6776 C.2     1  UNL1       -0.0763
      4 C           0.3065   -2.0751    3.9874 C.3     1  UNL1        0.0054
      5 C          -0.2330   -1.3608    2.8880 C.2     1  UNL1       -0.0763
      6 H           0.6550   -0.8139    0.9332 H       1  UNL1        0.0615
      7 H           2.8755   -1.9464    1.8820 H       1  UNL1        0.0615
      8 H           2.3137   -3.0065    4.2506 H       1  UNL1        0.0578
      9 H          -0.2796   -2.5473    4.7669 H       1  UNL1        0.0394
     10 H          -1.2849   -1.1539    2.7321 H       1  UNL1        0.0578
@<TRIPOS>BOND
     1     6     1    1
     2     7     2    1
     3     1     2    1
     4     1     5    2
     5     2     3    2
     6    10     5    1
     7     5     4    1
     8     3     4    1
     9     3     8    1
    10     4     9    1
