@<TRIPOS>MOLECULE
5,6,9
 22 22 0 0 0
SMALL
GASTEIGER

@<TRIPOS>ATOM
      1 SI          7.0440    5.0870    8.7602 Si      1  UNL1        0.0000
      2 C           5.9155    4.7491    7.2571 C.3     1  UNL1        0.0000
      3 C           8.6908    4.1237    8.5851 C.3     1  UNL1        0.0000
      4 C           6.1712    4.5572   10.3767 C.3     1  UNL1        0.0000
      5 C           7.4558    6.9566    8.8660 C.3     1  UNL1        0.0000
      6 C           8.0554    7.3653   10.1356 C.2     1  UNL1        0.0000
      7 C           9.2525    7.9812    9.8993 C.2     1  UNL1        0.0000
      8 C           9.4776    8.0158    8.4967 C.2     1  UNL1        0.0000
      9 C           8.4227    7.4145    7.8703 C.2     1  UNL1        0.0000
     10 H           4.9590    5.2491    7.3929 H       1  UNL1        0.0000
     11 H           5.7349    3.6868    7.1304 H       1  UNL1        0.0000
     12 H           6.3566    5.1252    6.3389 H       1  UNL1        0.0000
     13 H           9.3920    4.3989    9.3667 H       1  UNL1        0.0000
     14 H           9.1685    4.3290    7.6326 H       1  UNL1        0.0000
     15 H           8.5267    3.0534    8.6489 H       1  UNL1        0.0000
     16 H           5.3637    5.2457   10.6063 H       1  UNL1        0.0000
     17 H           6.8552    4.5344   11.2191 H       1  UNL1        0.0000
     18 H           5.7423    3.5660   10.2778 H       1  UNL1        0.0000
     19 H           7.6406    7.1188   11.1039 H       1  UNL1        0.0000
     20 H           9.9294    8.3806   10.6381 H       1  UNL1        0.0000
     21 H          10.3433    8.4508    8.0242 H       1  UNL1        0.0000
     22 H           8.3263    7.2235    6.8090 H       1  UNL1        0.0000
@<TRIPOS>BOND
     1    12     2    1
     2    22     9    1
     3    11     2    1
     4     2    10    1
     5     2     1    1
     6    14     3    1
     7     9     8    2
     8     9     5    1
     9    21     8    1
    10     8     7    1
    11     3    15    1
    12     3     1    1
    13     3    13    1
    14     1     5    1
    15     1     4    1
    16     5     6    1
    17     7     6    2
    18     7    20    1
    19     6    19    1
    20    18     4    1
    21     4    16    1
    22     4    17    1
