@<TRIPOS>MOLECULE
6,7,19
 53 53 0 0 0
SMALL
GASTEIGER

@<TRIPOS>ATOM
      1 C           9.7454    8.6674   14.6537 C.2     1  UNL1        0.0000
      2 C          10.6371    9.0201   15.6842 C.1     1  UNL1        0.0000
      3 N          11.3511    9.3473   16.5227 N.1     1  UNL1        0.0000
      4 C          10.3119    8.2343   13.4355 C.1     1  UNL1        0.0000
      5 N          10.7502    7.8700   12.4393 N.1     1  UNL1        0.0000
      6 C           8.4019    8.7168   14.8163 C.2     1  UNL1        0.0000
      7 C           7.2992    8.6576   13.9222 C.3     1  UNL1        0.0000
      8 C           7.1765    9.5717   12.7792 C.ar    1  UNL1        0.0000
      9 C           7.8723   10.7840   12.7620 C.ar    1  UNL1        0.0000
     10 H           8.4748   11.0664   13.6158 H       1  UNL1        0.0000
     11 C           7.7879   11.6287   11.6740 C.ar    1  UNL1        0.0000
     12 H           8.3274   12.5646   11.6798 H       1  UNL1        0.0000
     13 C           7.0164   11.2785   10.5773 C.ar    1  UNL1        0.0000
     14 H           6.9494   11.9419    9.7280 H       1  UNL1        0.0000
     15 C           6.3425   10.0693   10.5733 C.ar    1  UNL1        0.0000
     16 H           5.7519    9.7807    9.7164 H       1  UNL1        0.0000
     17 C           6.4233    9.2185   11.6595 C.ar    1  UNL1        0.0000
     18 H           5.9086    8.2709   11.6380 H       1  UNL1        0.0000
     19 C           6.3156    7.6828   14.3355 C.3     1  UNL1        0.0000
     20 H           6.6745    6.6692   14.5333 H       1  UNL1        0.0000
     21 C           4.9981    7.7354   13.8362 C.1     1  UNL1        0.0000
     22 C           3.8424    7.7614   13.4653 C.1     1  UNL1        0.0000
     23 SI          2.1295    7.9103   12.7828 Si      1  UNL1        0.0000
     24 C           1.9058    9.6933   12.0871 C.3     1  UNL1        0.0000
     25 H           2.1407    9.6592   11.0181 H       1  UNL1        0.0000
     26 C           2.8782   10.6841   12.7211 C.3     1  UNL1        0.0000
     27 H           2.7710   11.6697   12.2683 H       1  UNL1        0.0000
     28 H           3.9049   10.3526   12.5846 H       1  UNL1        0.0000
     29 H           2.6881   10.7815   13.7878 H       1  UNL1        0.0000
     30 C           0.4735   10.2067   12.2244 C.3     1  UNL1        0.0000
     31 H           0.2004   10.3119   13.2723 H       1  UNL1        0.0000
     32 H          -0.2352    9.5297   11.7530 H       1  UNL1        0.0000
     33 H           0.3730   11.1842   11.7527 H       1  UNL1        0.0000
     34 C           1.9791    6.6283   11.3609 C.3     1  UNL1        0.0000
     35 H           2.0828    5.6273   11.7902 H       1  UNL1        0.0000
     36 C           3.1026    6.8011   10.3437 C.3     1  UNL1        0.0000
     37 H           3.0242    6.0563    9.5525 H       1  UNL1        0.0000
     38 H           4.0717    6.6904   10.8238 H       1  UNL1        0.0000
     39 H           3.0610    7.7863    9.8843 H       1  UNL1        0.0000
     40 C           0.6237    6.7008   10.6630 C.3     1  UNL1        0.0000
     41 H           0.4941    7.6662   10.1781 H       1  UNL1        0.0000
     42 H          -0.1903    6.5586   11.3712 H       1  UNL1        0.0000
     43 H           0.5445    5.9291    9.8973 H       1  UNL1        0.0000
     44 C           0.9115    7.4978   14.2115 C.3     1  UNL1        0.0000
     45 H          -0.1057    7.7719   13.9148 H       1  UNL1        0.0000
     46 C           0.9169    6.0040   14.5267 C.3     1  UNL1        0.0000
     47 H           1.9239    5.6708   14.7701 H       1  UNL1        0.0000
     48 H           0.5641    5.4252   13.6773 H       1  UNL1        0.0000
     49 H           0.2672    5.7883   15.3752 H       1  UNL1        0.0000
     50 C           1.2545    8.2869   15.4718 C.3     1  UNL1        0.0000
     51 H           0.5446    8.0722   16.2707 H       1  UNL1        0.0000
     52 H           1.2339    9.3576   15.2817 H       1  UNL1        0.0000
     53 H           2.2499    8.0182   15.8193 H       1  UNL1        0.0000
@<TRIPOS>BOND
     1    37    36    1
     2    16    15    1
     3    14    13    1
     4    39    36    1
     5    43    40    1
     6    41    40    1
     7    36    38    1
     8    36    34    1
     9    15    13   ar
    10    15    17   ar
    11    13    11   ar
    12    40    34    1
    13    40    42    1
    14    25    24    1
    15    34    35    1
    16    34    23    1
    17    18    17    1
    18    17     8   ar
    19    11    12    1
    20    11     9   ar
    21    33    30    1
    22    32    30    1
    23    24    30    1
    24    24    26    1
    25    24    23    1
    26    30    31    1
    27    27    26    1
    28     5     4    3
    29    28    26    1
    30    26    29    1
    31     9     8   ar
    32     9    10    1
    33     8     7    1
    34    23    22    1
    35    23    44    1
    36     4     1    1
    37    22    21    3
    38    48    46    1
    39    21    19    1
    40    45    44    1
    41     7    19    1
    42     7     6    1
    43    44    46    1
    44    44    50    1
    45    19    20    1
    46    46    47    1
    47    46    49    1
    48     1     6    2
    49     1     2    1
    50    52    50    1
    51    50    53    1
    52    50    51    1
    53     2     3    3
