@<TRIPOS>MOLECULE
1,2,3
 14 13 0 0 0
SMALL
GASTEIGER

@<TRIPOS>ATOM
      1 C           1.6033   -0.9822    5.4084 C.3     1  UNL1       -0.0492
      2 C           1.6798   -1.2323    4.0073 C.3     1  UNL1       -0.0320
      3 C           1.3912   -0.2490    3.0643 C.3     1  UNL1       -0.0264
      4 C           0.3936    0.8655    3.3028 C.3     1  UNL1       -0.0591
      5 C           1.4565   -0.6418    1.6064 C.3     1  UNL1       -0.0591
      6 H           1.8343   -1.8331    6.0452 H       1  UNL1        0.0268
      7 H           0.7270   -0.4402    5.7630 H       1  UNL1        0.0268
      8 H           2.0823   -2.1827    3.6543 H       1  UNL1        0.0309
      9 H           0.1638    1.0139    4.3532 H       1  UNL1        0.0235
     10 H          -0.5395    0.6164    2.7894 H       1  UNL1        0.0235
     11 H           0.7492    1.8049    2.8772 H       1  UNL1        0.0235
     12 H           2.3249   -1.2591    1.4058 H       1  UNL1        0.0235
     13 H           1.4933    0.2307    0.9580 H       1  UNL1        0.0235
     14 H           0.5585   -1.2074    1.3460 H       1  UNL1        0.0235
@<TRIPOS>BOND
     1    13     5    1
     2    14     5    1
     3    12     5    1
     4     5     3    1
     5    10     4    1
     6    11     4    1
     7     3     4    1
     8     3     2    1
     9     4     9    1
    10     8     2    1
    11     2     1    1
    12     1     7    1
    13     1     6    1
