@<TRIPOS>MOLECULE
1,4,5
 25 25 0 0 0
SMALL
GASTEIGER

@<TRIPOS>ATOM
      1 C          -0.0919    1.4202    7.3549 C.2     1  UNL1       -0.0584
      2 C          -0.1492    0.2559    6.6541 C.2     1  UNL1       -0.0477
      3 C          -0.3952    0.5582    5.2538 C.2     1  UNL1       -0.0477
      4 C          -0.4896    1.9064    5.1018 C.2     1  UNL1       -0.0584
      5 C          -0.2496    2.5519    6.4110 C.3     1  UNL1        0.0231
      6 C           0.0414    1.6163    8.8326 C.3     1  UNL1       -0.0424
      7 C           0.0097   -1.1392    7.1578 C.3     1  UNL1       -0.0395
      8 C          -0.5026   -0.5009    4.2085 C.3     1  UNL1       -0.0395
      9 C          -0.8289    2.6770    3.8620 C.3     1  UNL1       -0.0424
     10 C          -1.1390    3.7057    6.8259 C.3     1  UNL1       -0.0510
     11 H           0.6345    2.5063    9.0445 H       1  UNL1        0.0275
     12 H           0.5199    0.7588    9.2998 H       1  UNL1        0.0275
     13 H          -0.9434    1.7430    9.2856 H       1  UNL1        0.0275
     14 H           0.1810   -1.1517    8.2304 H       1  UNL1        0.0278
     15 H           0.8529   -1.6251    6.6656 H       1  UNL1        0.0278
     16 H          -0.8833   -1.7264    6.9429 H       1  UNL1        0.0278
     17 H           0.4207   -1.0797    4.1602 H       1  UNL1        0.0278
     18 H          -0.6959   -0.0718    3.2288 H       1  UNL1        0.0278
     19 H          -1.3122   -1.1900    4.4483 H       1  UNL1        0.0278
     20 H          -0.5061    2.1468    2.9675 H       1  UNL1        0.0275
     21 H          -1.9090    2.8233    3.7924 H       1  UNL1        0.0275
     22 H          -0.3569    3.6594    3.8747 H       1  UNL1        0.0275
     23 H          -2.1617    3.3498    6.9602 H       1  UNL1        0.0242
     24 H          -1.1433    4.4917    6.0726 H       1  UNL1        0.0242
     25 H          -0.7917    4.1345    7.7636 H       1  UNL1        0.0242
@<TRIPOS>BOND
     1    20     9    1
     2    18     8    1
     3    21     9    1
     4     9    22    1
     5     9     4    1
     6    17     8    1
     7     8    19    1
     8     8     3    1
     9     4     3    2
    10     4     5    1
    11     3     2    1
    12    24    10    1
    13     5    10    1
    14     5     1    1
    15     2     7    1
    16     2     1    2
    17    15     7    1
    18    10    23    1
    19    10    25    1
    20    16     7    1
    21     7    14    1
    22     1     6    1
    23     6    11    1
    24     6    13    1
    25     6    12    1
