@<TRIPOS>MOLECULE
2,3,4
 49 53 0 0 0
SMALL
GASTEIGER

@<TRIPOS>ATOM
      1 SI          3.5649    8.0668    5.3393 Si      1  UNL1        0.0000
      2 C           6.4011    9.0425    4.3195 C.2     1  UNL1        0.0000
      3 C           5.2512    8.9104    5.0239 C.2     1  UNL1        0.0000
      4 C           5.0615    9.8357    6.1883 C.3     1  UNL1        0.0000
      5 C           3.7957    9.4830    6.6005 C.3     1  UNL1        0.0000
      6 C           6.7914    8.2971    3.1368 C.ar    1  UNL1        0.0000
      7 C           5.9004    7.5213    2.3846 C.ar    1  UNL1        0.0000
      8 C           6.3273    6.8563    1.2532 C.ar    1  UNL1        0.0000
      9 C           7.6483    6.9462    0.8414 C.ar    1  UNL1        0.0000
     10 C           8.5445    7.7128    1.5710 C.ar    1  UNL1        0.0000
     11 C           8.1220    8.3849    2.6999 C.ar    1  UNL1        0.0000
     12 C           2.9958   10.0634    7.6488 C.ar    1  UNL1        0.0000
     13 C           1.9083    9.3679    8.1847 C.ar    1  UNL1        0.0000
     14 C           1.1526    9.9153    9.2016 C.ar    1  UNL1        0.0000
     15 C           1.4569   11.1726    9.7005 C.ar    1  UNL1        0.0000
     16 C           2.5191   11.8845    9.1641 C.ar    1  UNL1        0.0000
     17 C           3.2777   11.3400    8.1490 C.ar    1  UNL1        0.0000
     18 C           2.1978    8.1822    4.0397 C.ar    1  UNL1        0.0000
     19 C           1.0512    7.4021    4.1418 C.ar    1  UNL1        0.0000
     20 C           0.0470    7.4861    3.1947 C.ar    1  UNL1        0.0000
     21 C           0.1741    8.3573    2.1254 C.ar    1  UNL1        0.0000
     22 C           1.3078    9.1447    2.0125 C.ar    1  UNL1        0.0000
     23 C           2.3075    9.0570    2.9637 C.ar    1  UNL1        0.0000
     24 C           3.6322    6.3165    6.0522 C.ar    1  UNL1        0.0000
     25 C           3.9184    6.1043    7.3971 C.ar    1  UNL1        0.0000
     26 C           3.9794    4.8257    7.9204 C.ar    1  UNL1        0.0000
     27 C           3.7559    3.7315    7.1015 C.ar    1  UNL1        0.0000
     28 C           3.4740    3.9252    5.7592 C.ar    1  UNL1        0.0000
     29 C           3.4154    5.2064    5.2424 C.ar    1  UNL1        0.0000
     30 H           4.8688    7.4528    2.7001 H       1  UNL1        0.0000
     31 H           5.6266    6.2623    0.6833 H       1  UNL1        0.0000
     32 H           7.9775    6.4249   -0.0454 H       1  UNL1        0.0000
     33 H           9.5744    7.7865    1.2501 H       1  UNL1        0.0000
     34 H           8.8206    8.9928    3.2743 H       1  UNL1        0.0000
     35 H           1.6729    8.3872    7.7941 H       1  UNL1        0.0000
     36 H           0.3188    9.3622    9.6106 H       1  UNL1        0.0000
     37 H           0.8642   11.5991   10.4965 H       1  UNL1        0.0000
     38 H           2.7492   12.8719    9.5402 H       1  UNL1        0.0000
     39 H           4.0949   11.8981    7.7076 H       1  UNL1        0.0000
     40 H           0.9484    6.7170    4.9716 H       1  UNL1        0.0000
     41 H          -0.8369    6.8709    3.2880 H       1  UNL1        0.0000
     42 H          -0.6086    8.4221    1.3831 H       1  UNL1        0.0000
     43 H           1.4119    9.8255    1.1792 H       1  UNL1        0.0000
     44 H           3.1919    9.6703    2.8717 H       1  UNL1        0.0000
     45 H           4.0860    6.9559    8.0419 H       1  UNL1        0.0000
     46 H           4.1986    4.6803    8.9690 H       1  UNL1        0.0000
     47 H           3.8003    2.7312    7.5077 H       1  UNL1        0.0000
     48 H           3.2989    3.0743    5.1159 H       1  UNL1        0.0000
     49 H           3.1922    5.3500    4.1944 H       1  UNL1        0.0000
@<TRIPOS>BOND
     1    32     9    1
     2    31     8    1
     3     9     8   ar
     4     9    10   ar
     5    43    22    1
     6    33    10    1
     7     8     7   ar
     8    42    21    1
     9    10    11   ar
    10    22    21   ar
    11    22    23   ar
    12    21    20   ar
    13     7    30    1
    14     7     6   ar
    15    11     6   ar
    16    11    34    1
    17    44    23    1
    18    23    18   ar
    19     6     2    1
    20    20    41    1
    21    20    19   ar
    22    18    19   ar
    23    18     1    1
    24    19    40    1
    25    49    29    1
    26     2     3    2
    27     3     1    1
    28     3     4    1
    29    48    28    1
    30    29    28   ar
    31    29    24   ar
    32     1    24    1
    33     1     5    1
    34    28    27   ar
    35    24    25   ar
    36     4     5    1
    37     5    12    1
    38    27    47    1
    39    27    26   ar
    40    25    26   ar
    41    25    45    1
    42    12    17   ar
    43    12    13   ar
    44    39    17    1
    45    35    13    1
    46    26    46    1
    47    17    16   ar
    48    13    14   ar
    49    16    38    1
    50    16    15   ar
    51    14    36    1
    52    14    15   ar
    53    15    37    1
