@<TRIPOS>MOLECULE
3,5,7
 32 31 0 0 0
SMALL
GASTEIGER

@<TRIPOS>ATOM
      1 SI          2.7321    7.0670   -0.1297 Si      1  UNL1        0.0000
      2 SI          7.1587    8.7959    3.1059 Si      1  UNL1        0.0000
      3 C           3.6389    8.3755    0.8358 C.3     1  UNL1        0.0000
      4 H           3.4356    9.4237    0.5772 H       1  UNL1        0.0000
      5 C           4.8344    8.1364    1.5336 C.3     1  UNL1        0.0000
      6 H           5.1883    7.1063    1.6048 H       1  UNL1        0.0000
      7 C           5.5461    9.1322    2.2383 C.3     1  UNL1        0.0000
      8 H           5.3588   10.1611    1.9057 H       1  UNL1        0.0000
      9 C           2.9807    7.2397   -2.0248 C.3     1  UNL1        0.0000
     10 H           2.6110    8.1952   -2.3841 H       1  UNL1        0.0000
     11 H           2.4500    6.4609   -2.5634 H       1  UNL1        0.0000
     12 H           4.0292    7.1721   -2.2972 H       1  UNL1        0.0000
     13 C           0.8496    7.2767    0.2049 C.3     1  UNL1        0.0000
     14 H           0.4600    6.4737    0.8231 H       1  UNL1        0.0000
     15 H           0.2800    7.2775   -0.7193 H       1  UNL1        0.0000
     16 H           0.6512    8.2175    0.7196 H       1  UNL1        0.0000
     17 C           3.3487    5.3237    0.3647 C.3     1  UNL1        0.0000
     18 H           4.2964    5.0974   -0.1144 H       1  UNL1        0.0000
     19 H           2.6420    4.5565    0.0639 H       1  UNL1        0.0000
     20 H           3.4919    5.2408    1.4386 H       1  UNL1        0.0000
     21 C           8.7020    9.3448    2.1053 C.3     1  UNL1        0.0000
     22 H           8.7788    8.8075    1.1653 H       1  UNL1        0.0000
     23 H           9.6161    9.1662    2.6625 H       1  UNL1        0.0000
     24 H           8.6644   10.4046    1.8724 H       1  UNL1        0.0000
     25 C           7.1869    9.8069    4.7404 C.3     1  UNL1        0.0000
     26 H           7.4921   10.8338    4.5591 H       1  UNL1        0.0000
     27 H           7.8883    9.3886    5.4553 H       1  UNL1        0.0000
     28 H           6.2036    9.8265    5.2067 H       1  UNL1        0.0000
     29 C           7.3376    6.9224    3.4480 C.3     1  UNL1        0.0000
     30 H           6.3967    6.4881    3.7747 H       1  UNL1        0.0000
     31 H           8.0777    6.7295    4.2182 H       1  UNL1        0.0000
     32 H           7.6551    6.3936    2.5544 H       1  UNL1        0.0000
@<TRIPOS>BOND
     1    11     9    1
     2    10     9    1
     3    12     9    1
     4     9     1    1
     5    15    13    1
     6     1    13    1
     7     1    17    1
     8     1     3    1
     9    18    17    1
    10    19    17    1
    11    13    16    1
    12    13    14    1
    13    17    20    1
    14     4     3    1
    15     3     5    1
    16    22    21    1
    17     5     6    1
    18     5     7    1
    19    24    21    1
    20     8     7    1
    21    21    23    1
    22    21     2    1
    23     7     2    1
    24    32    29    1
    25     2    29    1
    26     2    25    1
    27    29    30    1
    28    29    31    1
    29    26    25    1
    30    25    28    1
    31    25    27    1
