@<TRIPOS>MOLECULE
3,5,7
 32 31 0 0 0
SMALL
GASTEIGER

@<TRIPOS>ATOM
      1 SI          8.1489   10.2866    3.9779 Si      1  UNL1        0.0000
      2 SI          3.7867    8.2996    0.9273 Si      1  UNL1        0.0000
      3 C           6.4128    9.6163    3.9291 C.3     1  UNL1        0.0000
      4 H           5.6948    9.9893    4.6713 H       1  UNL1        0.0000
      5 C           5.8420    9.1399    2.7323 C.3     1  UNL1        0.0000
      6 H           6.5010    9.0124    1.8731 H       1  UNL1        0.0000
      7 C           4.4978    8.7430    2.5895 C.3     1  UNL1        0.0000
      8 H           3.8138    9.1304    3.3561 H       1  UNL1        0.0000
      9 C           9.0990    9.6817    5.5374 C.3     1  UNL1        0.0000
     10 H           8.6789   10.1037    6.4462 H       1  UNL1        0.0000
     11 H          10.1391    9.9902    5.4945 H       1  UNL1        0.0000
     12 H           9.0824    8.5994    5.6306 H       1  UNL1        0.0000
     13 C           9.1169    9.7649    2.4126 C.3     1  UNL1        0.0000
     14 H           8.9884    8.7076    2.2012 H       1  UNL1        0.0000
     15 H          10.1803    9.9517    2.5256 H       1  UNL1        0.0000
     16 H           8.7801   10.3202    1.5425 H       1  UNL1        0.0000
     17 C           8.1968   12.2035    4.0726 C.3     1  UNL1        0.0000
     18 H           7.7193   12.6566    3.2098 H       1  UNL1        0.0000
     19 H           9.2162   12.5732    4.1177 H       1  UNL1        0.0000
     20 H           7.6803   12.5642    4.9569 H       1  UNL1        0.0000
     21 C           2.6606    6.7433    1.0287 C.3     1  UNL1        0.0000
     22 H           3.1707    5.9005    1.4867 H       1  UNL1        0.0000
     23 H           2.3453    6.4346    0.0366 H       1  UNL1        0.0000
     24 H           1.7592    6.9422    1.6018 H       1  UNL1        0.0000
     25 C           2.6659    9.6855    0.2139 C.3     1  UNL1        0.0000
     26 H           1.8344    9.8970    0.8792 H       1  UNL1        0.0000
     27 H           2.2495    9.4037   -0.7480 H       1  UNL1        0.0000
     28 H           3.2161   10.6110    0.0769 H       1  UNL1        0.0000
     29 C           5.1829    7.9800   -0.3406 C.3     1  UNL1        0.0000
     30 H           5.6630    8.9083   -0.6349 H       1  UNL1        0.0000
     31 H           4.7982    7.5132   -1.2420 H       1  UNL1        0.0000
     32 H           5.9478    7.3265    0.0684 H       1  UNL1        0.0000
@<TRIPOS>BOND
     1    31    29    1
     2    27    25    1
     3    30    29    1
     4    29    32    1
     5    29     2    1
     6    23    21    1
     7    28    25    1
     8    25    26    1
     9    25     2    1
    10     2    21    1
    11     2     7    1
    12    21    22    1
    13    21    24    1
    14    16    13    1
    15     6     5    1
    16    14    13    1
    17    13    15    1
    18    13     1    1
    19     7     5    1
    20     7     8    1
    21     5     3    1
    22    18    17    1
    23     3     1    1
    24     3     4    1
    25     1    17    1
    26     1     9    1
    27    17    19    1
    28    17    20    1
    29    11     9    1
    30     9    12    1
    31     9    10    1
