@<TRIPOS>MOLECULE
3,5,7
 32 31 0 0 0
SMALL
GASTEIGER

@<TRIPOS>ATOM
      1 SI          3.5139    6.4098    0.8174 Si      1  UNL1        0.0000
      2 SI          3.6356    3.0542    5.4774 Si      1  UNL1        0.0000
      3 C           2.6254    5.3969    2.1025 C.3     1  UNL1        0.0000
      4 H           1.6718    5.8100    2.4589 H       1  UNL1        0.0000
      5 C           3.3271    4.6335    3.0570 C.3     1  UNL1        0.0000
      6 H           4.3775    4.4141    2.8605 H       1  UNL1        0.0000
      7 C           2.7465    4.0826    4.2108 C.3     1  UNL1        0.0000
      8 H           1.8125    4.5488    4.5385 H       1  UNL1        0.0000
      9 C           5.3554    5.9179    0.6683 C.3     1  UNL1        0.0000
     10 H           5.9164    6.2444    1.5386 H       1  UNL1        0.0000
     11 H           5.8134    6.3716   -0.2053 H       1  UNL1        0.0000
     12 H           5.4784    4.8433    0.5824 H       1  UNL1        0.0000
     13 C           3.4719    8.2830    1.2412 C.3     1  UNL1        0.0000
     14 H           2.4516    8.6510    1.2906 H       1  UNL1        0.0000
     15 H           3.9937    8.8719    0.4935 H       1  UNL1        0.0000
     16 H           3.9367    8.4835    2.2014 H       1  UNL1        0.0000
     17 C           2.6759    6.2794   -0.9079 C.3     1  UNL1        0.0000
     18 H           2.7221    5.2720   -1.3081 H       1  UNL1        0.0000
     19 H           3.1675    6.9358   -1.6197 H       1  UNL1        0.0000
     20 H           1.6308    6.5749   -0.8649 H       1  UNL1        0.0000
     21 C           2.5730    1.4647    5.7498 C.3     1  UNL1        0.0000
     22 H           2.0015    1.5305    6.6711 H       1  UNL1        0.0000
     23 H           3.1814    0.5679    5.8152 H       1  UNL1        0.0000
     24 H           1.8676    1.3323    4.9243 H       1  UNL1        0.0000
     25 C           5.4291    2.6389    4.9589 C.3     1  UNL1        0.0000
     26 H           5.4792    2.2841    3.9349 H       1  UNL1        0.0000
     27 H           5.8566    1.8721    5.5977 H       1  UNL1        0.0000
     28 H           6.0621    3.5175    5.0358 H       1  UNL1        0.0000
     29 C           3.7412    3.9092    7.1925 C.3     1  UNL1        0.0000
     30 H           4.3487    4.8073    7.1526 H       1  UNL1        0.0000
     31 H           4.1763    3.2499    7.9368 H       1  UNL1        0.0000
     32 H           2.7566    4.1974    7.5472 H       1  UNL1        0.0000
@<TRIPOS>BOND
     1    19    17    1
     2    18    17    1
     3    17    20    1
     4    17     1    1
     5    11     9    1
     6    15    13    1
     7    12     9    1
     8     9     1    1
     9     9    10    1
    10     1    13    1
    11     1     3    1
    12    13    14    1
    13    13    16    1
    14     3     4    1
    15     3     5    1
    16     6     5    1
    17     5     7    1
    18    26    25    1
    19     7     8    1
    20     7     2    1
    21    24    21    1
    22    25    28    1
    23    25     2    1
    24    25    27    1
    25     2    21    1
    26     2    29    1
    27    21    23    1
    28    21    22    1
    29    30    29    1
    30    29    32    1
    31    29    31    1
