@<TRIPOS>MOLECULE
2,3,4
 25 25 0 0 0
SMALL
GASTEIGER

@<TRIPOS>ATOM
      1 C           5.6160    3.9192    2.8866 C.2     1  UNL1       -0.0477
      2 C           6.7980    4.5558    2.6269 C.2     1  UNL1       -0.0584
      3 C           7.8198    4.0340    3.5471 C.3     1  UNL1        0.0231
      4 C           7.0933    3.1301    4.4494 C.2     1  UNL1       -0.0584
      5 C           5.7972    3.0352    4.0158 C.2     1  UNL1       -0.0477
      6 C           4.3164    4.0674    2.1671 C.3     1  UNL1       -0.0395
      7 H           3.5372    4.3997    2.8536 H       1  UNL1        0.0278
      8 H           4.3946    4.7913    1.3598 H       1  UNL1        0.0278
      9 H           3.9998    3.1115    1.7460 H       1  UNL1        0.0278
     10 C           7.0644    5.6412    1.6286 C.3     1  UNL1       -0.0424
     11 H           6.8381    6.6170    2.0643 H       1  UNL1        0.0275
     12 H           8.1115    5.6428    1.3219 H       1  UNL1        0.0275
     13 H           6.4475    5.5233    0.7388 H       1  UNL1        0.0275
     14 C           8.8719    4.9630    4.1096 C.3     1  UNL1       -0.0510
     15 H           8.4001    5.6978    4.7647 H       1  UNL1        0.0242
     16 H           9.6071    4.4072    4.6861 H       1  UNL1        0.0242
     17 H           9.3942    5.4958    3.3168 H       1  UNL1        0.0242
     18 C           7.6901    2.5829    5.7074 C.3     1  UNL1       -0.0424
     19 H           7.6413    3.3378    6.4954 H       1  UNL1        0.0275
     20 H           7.1508    1.7040    6.0488 H       1  UNL1        0.0275
     21 H           8.7337    2.3131    5.5587 H       1  UNL1        0.0275
     22 C           4.6925    2.2136    4.5899 C.3     1  UNL1       -0.0395
     23 H           3.9678    2.8531    5.0965 H       1  UNL1        0.0278
     24 H           4.1660    1.6757    3.8020 H       1  UNL1        0.0278
     25 H           5.0748    1.4920    5.3066 H       1  UNL1        0.0278
@<TRIPOS>BOND
     1    13    10    1
     2    12    10    1
     3     8     6    1
     4    10    11    1
     5    10     2    1
     6     9     6    1
     7     6     7    1
     8     6     1    1
     9     2     1    2
    10     2     3    1
    11     1     5    1
    12    17    14    1
    13     3    14    1
    14     3     4    1
    15    24    22    1
    16     5     4    2
    17     5    22    1
    18    14    16    1
    19    14    15    1
    20     4    18    1
    21    22    23    1
    22    22    25    1
    23    21    18    1
    24    18    20    1
    25    18    19    1
