@<TRIPOS>MOLECULE
2,3,9
 22 22 0 0 0
SMALL
GASTEIGER

@<TRIPOS>ATOM
      1 SI          9.6820   -0.8845    1.4867 Si      1  UNL1        0.0000
      2 C           8.4629    0.1595    2.5344 C.3     1  UNL1        0.0000
      3 C           8.5555   -0.1374    3.9634 C.2     1  UNL1        0.0000
      4 H           9.4712   -0.0727    4.5255 H       1  UNL1        0.0000
      5 C           7.3481   -0.5513    4.4221 C.2     1  UNL1        0.0000
      6 H           7.1102   -0.8551    5.4273 H       1  UNL1        0.0000
      7 C           6.4154   -0.5339    3.3406 C.2     1  UNL1        0.0000
      8 H           5.3795   -0.8161    3.4212 H       1  UNL1        0.0000
      9 C           7.0568   -0.1122    2.2221 C.2     1  UNL1        0.0000
     10 H           6.6328   -0.0448    1.2316 H       1  UNL1        0.0000
     11 C          11.4622   -0.6512    2.1350 C.3     1  UNL1        0.0000
     12 H          11.7250    0.4009    2.1836 H       1  UNL1        0.0000
     13 H          11.5839   -1.0732    3.1267 H       1  UNL1        0.0000
     14 H          12.1753   -1.1438    1.4823 H       1  UNL1        0.0000
     15 C           9.5988   -0.3453   -0.3463 C.3     1  UNL1        0.0000
     16 H          10.0330    0.6428   -0.4824 H       1  UNL1        0.0000
     17 H          10.1483   -1.0374   -0.9764 H       1  UNL1        0.0000
     18 H           8.5779   -0.3139   -0.7154 H       1  UNL1        0.0000
     19 C           9.1614   -2.7177    1.6366 C.3     1  UNL1        0.0000
     20 H           9.8696   -3.3661    1.1316 H       1  UNL1        0.0000
     21 H           9.1128   -3.0243    2.6763 H       1  UNL1        0.0000
     22 H           8.1829   -2.8914    1.2005 H       1  UNL1        0.0000
@<TRIPOS>BOND
     1    17    15    1
     2    18    15    1
     3    16    15    1
     4    15     1    1
     5    20    19    1
     6    22    19    1
     7    10     9    1
     8    14    11    1
     9     1    19    1
    10     1    11    1
    11     1     2    1
    12    19    21    1
    13    11    12    1
    14    11    13    1
    15     9     2    1
    16     9     7    2
    17     2     3    1
    18     7     8    1
    19     7     5    1
    20     3     5    2
    21     3     4    1
    22     5     6    1
