@<TRIPOS>MOLECULE
2,3,4
 25 25 0 0 0
SMALL
GASTEIGER

@<TRIPOS>ATOM
      1 C          -0.8125    1.9071   10.5355 C.2     1  UNL1       -0.0658
      2 C           0.5672    2.1904   10.2482 C.3     1  UNL1        0.0052
      3 C           0.7474    2.1463    8.8424 C.3     1  UNL1       -0.0053
      4 C          -0.4830    1.6961    8.2859 C.3     1  UNL1        0.0052
      5 C          -1.4611    1.6242    9.3290 C.2     1  UNL1       -0.0658
      6 C          -1.4017    2.0052   11.9065 C.3     1  UNL1       -0.0430
      7 C           1.5483    2.7060   11.2571 C.3     1  UNL1       -0.0545
      8 C           1.9377    2.6317    8.0701 C.3     1  UNL1       -0.0574
      9 C          -0.7686    1.5662    6.8215 C.3     1  UNL1       -0.0545
     10 C          -2.9114    1.3315    9.1147 C.3     1  UNL1       -0.0430
     11 H          -2.4505    1.7218   11.9109 H       1  UNL1        0.0275
     12 H          -1.3222    3.0296   12.2744 H       1  UNL1        0.0275
     13 H          -0.8698    1.3596   12.6039 H       1  UNL1        0.0275
     14 H           1.4664    2.1539   12.1915 H       1  UNL1        0.0239
     15 H           1.3606    3.7597   11.4727 H       1  UNL1        0.0239
     16 H           2.5677    2.6150   10.8898 H       1  UNL1        0.0239
     17 H           1.8365    3.6953    7.8456 H       1  UNL1        0.0236
     18 H           2.0313    2.0993    7.1258 H       1  UNL1        0.0236
     19 H           2.8563    2.4951    8.6362 H       1  UNL1        0.0236
     20 H           0.0441    1.0490    6.3136 H       1  UNL1        0.0239
     21 H          -0.8764    2.5513    6.3630 H       1  UNL1        0.0239
     22 H          -1.6878    1.0117    6.6542 H       1  UNL1        0.0239
     23 H          -3.3253    2.0114    8.3695 H       1  UNL1        0.0275
     24 H          -3.4726    1.4570   10.0363 H       1  UNL1        0.0275
     25 H          -3.0577    0.3117    8.7657 H       1  UNL1        0.0275
@<TRIPOS>BOND
     1    20     9    1
     2    21     9    1
     3    22     9    1
     4     9     4    1
     5    18     8    1
     6    17     8    1
     7     8    19    1
     8     8     3    1
     9     4     3    1
    10     4     5    1
    11    23    10    1
    12    25    10    1
    13     3     2    1
    14    10     5    1
    15    10    24    1
    16     5     1    2
    17     2     1    1
    18     2     7    1
    19     1     6    1
    20    16     7    1
    21     7    15    1
    22     7    14    1
    23     6    11    1
    24     6    12    1
    25     6    13    1
