@<TRIPOS>MOLECULE
1,2,3
 18 18 0 0 0
SMALL
GASTEIGER

@<TRIPOS>ATOM
      1 C          -0.0041    7.9133   10.7092 C.3     1  UNL1       -0.0417
      2 C           0.5741    7.8011    9.4103 C.3     1  UNL1        0.0054
      3 C          -0.1684    6.9068    8.5895 C.3     1  UNL1       -0.0417
      4 C           1.8033    8.4904    8.9937 C.ar    1  UNL1       -0.0404
      5 C           2.0863    8.6400    7.6331 C.ar    1  UNL1       -0.0580
      6 C           3.1974    9.3457    7.2117 C.ar    1  UNL1       -0.0615
      7 C           4.0495    9.9228    8.1377 C.ar    1  UNL1       -0.0617
      8 C           3.7766    9.7941    9.4903 C.ar    1  UNL1       -0.0615
      9 C           2.6679    9.0900    9.9165 C.ar    1  UNL1       -0.0580
     10 H           0.5235    8.4984   11.4548 H       1  UNL1        0.0274
     11 H          -1.0838    8.0348   10.7683 H       1  UNL1        0.0274
     12 H          -1.2478    7.0305    8.5905 H       1  UNL1        0.0274
     13 H           0.2293    6.6508    7.6132 H       1  UNL1        0.0274
     14 H           1.4201    8.2265    6.8911 H       1  UNL1        0.0620
     15 H           3.3939    9.4499    6.1556 H       1  UNL1        0.0618
     16 H           4.9161   10.4743    7.8082 H       1  UNL1        0.0618
     17 H           4.4296   10.2426   10.2227 H       1  UNL1        0.0618
     18 H           2.4938    8.9913   10.9774 H       1  UNL1        0.0620
@<TRIPOS>BOND
     1    15     6    1
     2    14     5    1
     3     6     5   ar
     4     6     7   ar
     5    13     3    1
     6     5     4   ar
     7    16     7    1
     8     7     8   ar
     9     3    12    1
    10     3     2    1
    11     4     2    1
    12     4     9   ar
    13     2     1    1
    14     8     9   ar
    15     8    17    1
    16     9    18    1
    17     1    11    1
    18     1    10    1
