@<TRIPOS>MOLECULE
2,3,6
 22 22 0 0 0
SMALL
GASTEIGER

@<TRIPOS>ATOM
      1 SI          8.9616    5.2482    2.3956 Si      1  UNL1        0.0000
      2 C           9.6909    5.3227    4.1358 C.3     1  UNL1        0.0000
      3 C          10.5917    4.3257    4.6329 C.3     1  UNL1        0.0000
      4 C          10.4322    4.2148    6.0174 C.2     1  UNL1        0.0000
      5 C           9.4761    5.1465    6.4288 C.2     1  UNL1        0.0000
      6 C           9.0270    5.8474    5.3005 C.3     1  UNL1        0.0000
      7 C           7.8044    6.7165    2.0137 C.3     1  UNL1        0.0000
      8 C           7.9507    3.6204    2.3022 C.3     1  UNL1        0.0000
      9 C          10.3427    5.2002    1.0754 C.3     1  UNL1        0.0000
     10 H          11.1558    3.6458    4.0067 H       1  UNL1        0.0000
     11 H          10.9211    3.4927    6.6560 H       1  UNL1        0.0000
     12 H           9.1135    5.2798    7.4391 H       1  UNL1        0.0000
     13 H           8.1689    6.5077    5.2731 H       1  UNL1        0.0000
     14 H           8.3837    7.5986    1.7641 H       1  UNL1        0.0000
     15 H           7.1659    6.4865    1.1667 H       1  UNL1        0.0000
     16 H           7.1604    6.9612    2.8520 H       1  UNL1        0.0000
     17 H           8.5721    2.7529    2.5021 H       1  UNL1        0.0000
     18 H           7.1415    3.6144    3.0259 H       1  UNL1        0.0000
     19 H           7.5131    3.4915    1.3178 H       1  UNL1        0.0000
     20 H          11.0476    4.3928    1.2509 H       1  UNL1        0.0000
     21 H           9.9251    5.0547    0.0842 H       1  UNL1        0.0000
     22 H          10.8930    6.1365    1.0697 H       1  UNL1        0.0000
@<TRIPOS>BOND
     1    21     9    1
     2    22     9    1
     3     9    20    1
     4     9     1    1
     5    15     7    1
     6    19     8    1
     7    14     7    1
     8     7     1    1
     9     7    16    1
    10     8     1    1
    11     8    17    1
    12     8    18    1
    13     1     2    1
    14    10     3    1
    15     2     3    1
    16     2     6    1
    17     3     4    1
    18    13     6    1
    19     6     5    1
    20     4     5    2
    21     4    11    1
    22     5    12    1
