@<TRIPOS>MOLECULE
1,2,3
 10 10 0 0 0
SMALL
GASTEIGER

@<TRIPOS>ATOM
      1 C           0.4603    2.2064    5.7635 C.3     1  UNL1       -0.0127
      2 C           1.7604    2.7525    5.5683 C.3     1  UNL1       -0.0235
      3 C           1.5979    4.1238    5.2589 C.3     1  UNL1       -0.0127
      4 C           0.2251    4.4164    5.2744 C.2     1  UNL1       -0.0837
      5 C          -0.4699    3.2437    5.5971 C.2     1  UNL1       -0.0837
      6 H           0.2222    1.2226    6.1509 H       1  UNL1        0.0352
      7 H           2.7054    2.2753    5.8093 H       1  UNL1        0.0315
      8 H           2.3941    4.8531    5.1820 H       1  UNL1        0.0352
      9 H          -0.2115    5.4002    5.1832 H       1  UNL1        0.0572
     10 H          -1.5317    3.1726    5.7838 H       1  UNL1        0.0572
@<TRIPOS>BOND
     1     8     3    1
     2     9     4    1
     3     3     4    1
     4     3     2    1
     5     4     5    2
     6     2     1    1
     7     2     7    1
     8     5     1    1
     9     5    10    1
    10     1     6    1
