@<TRIPOS>MOLECULE
2,5,6
 32 31 0 0 0
SMALL
GASTEIGER

@<TRIPOS>ATOM
      1 SI         15.8418    8.0178   17.1278 Si      1  UNL1        0.0000
      2 C          14.0640    8.3588   14.8246 C.3     1  UNL1        0.0000
      3 H          14.9534    8.7692   14.3612 H       1  UNL1        0.0000
      4 H          13.1602    8.9167   14.5706 H       1  UNL1        0.0000
      5 C          14.1940    7.8604   16.1488 C.3     1  UNL1        0.0000
      6 C          12.9619    7.4361   16.6859 C.3     1  UNL1        0.0000
      7 H          12.0712    7.9628   16.3399 H       1  UNL1        0.0000
      8 C          12.8191    6.8246   18.0366 C.3     1  UNL1        0.0000
      9 H          11.7739    6.6819   18.2973 H       1  UNL1        0.0000
     10 H          13.2814    7.4686   18.7841 H       1  UNL1        0.0000
     11 H          13.3238    5.8605   18.0842 H       1  UNL1        0.0000
     12 C          16.4289    6.4782   18.1010 C.3     1  UNL1        0.0000
     13 H          15.6013    5.8162   18.3504 H       1  UNL1        0.0000
     14 H          17.1055    5.8917   17.4759 H       1  UNL1        0.0000
     15 C          17.1590    6.8325   19.3965 C.3     1  UNL1        0.0000
     16 H          17.5126    5.9265   19.8826 H       1  UNL1        0.0000
     17 H          16.4991    7.3510   20.0855 H       1  UNL1        0.0000
     18 H          18.0154    7.4710   19.2015 H       1  UNL1        0.0000
     19 C          17.1932    8.5699   15.8765 C.3     1  UNL1        0.0000
     20 H          17.2346    7.8985   15.0167 H       1  UNL1        0.0000
     21 H          16.9495    9.5587   15.4840 H       1  UNL1        0.0000
     22 C          18.5860    8.6376   16.4983 C.3     1  UNL1        0.0000
     23 H          19.3140    8.9837   15.7677 H       1  UNL1        0.0000
     24 H          18.9004    7.6599   16.8524 H       1  UNL1        0.0000
     25 H          18.5977    9.3261   17.3381 H       1  UNL1        0.0000
     26 C          15.4614    9.4813   18.3121 C.3     1  UNL1        0.0000
     27 H          14.8874    9.1447   19.1763 H       1  UNL1        0.0000
     28 H          16.4091    9.8428   18.7095 H       1  UNL1        0.0000
     29 C          14.7247   10.6531   17.6650 C.3     1  UNL1        0.0000
     30 H          14.5865   11.4554   18.3857 H       1  UNL1        0.0000
     31 H          13.7448   10.3465   17.3065 H       1  UNL1        0.0000
     32 H          15.2880   11.0488   16.8243 H       1  UNL1        0.0000
@<TRIPOS>BOND
     1     3     2    1
     2     4     2    1
     3     2     5    1
     4    20    19    1
     5    21    19    1
     6    23    22    1
     7    19    22    1
     8    19     1    1
     9     5     6    1
    10     5     1    1
    11     7     6    1
    12    22    24    1
    13    22    25    1
    14     6     8    1
    15    32    29    1
    16     1    12    1
    17     1    26    1
    18    31    29    1
    19    14    12    1
    20    29    26    1
    21    29    30    1
    22     8    11    1
    23     8     9    1
    24     8    10    1
    25    12    13    1
    26    12    15    1
    27    26    28    1
    28    26    27    1
    29    18    15    1
    30    15    16    1
    31    15    17    1
