@<TRIPOS>MOLECULE
2,5,6
 29 28 0 0 0
SMALL
GASTEIGER

@<TRIPOS>ATOM
      1 SI          8.0843    3.1944   10.7100 Si      1  UNL1        0.0000
      2 C           9.7521    0.8141   10.3285 C.3     1  UNL1        0.0000
      3 H           9.9337    1.2108    9.3363 H       1  UNL1        0.0000
      4 H          10.6166    0.3521   10.7975 H       1  UNL1        0.0000
      5 C           8.7985    1.4646   11.1388 C.3     1  UNL1        0.0000
      6 C           8.5343    0.7538   12.3318 C.3     1  UNL1        0.0000
      7 H           9.3567    0.2375   12.8312 H       1  UNL1        0.0000
      8 H           7.8126    1.1813   13.0195 H       1  UNL1        0.0000
      9 C           9.2105    4.3319   11.7698 C.3     1  UNL1        0.0000
     10 H          10.2231    4.3276   11.3629 H       1  UNL1        0.0000
     11 H           8.8478    5.3535   11.6643 H       1  UNL1        0.0000
     12 C           9.2824    3.9902   13.2566 C.3     1  UNL1        0.0000
     13 H           9.8923    4.7214   13.7819 H       1  UNL1        0.0000
     14 H           9.7264    3.0093   13.4078 H       1  UNL1        0.0000
     15 H           8.2933    3.9911   13.7071 H       1  UNL1        0.0000
     16 C           6.2464    3.3323   11.2527 C.3     1  UNL1        0.0000
     17 H           5.6067    3.0401   10.4172 H       1  UNL1        0.0000
     18 H           6.0249    2.6431   12.0716 H       1  UNL1        0.0000
     19 C           5.8473    4.7418   11.6868 C.3     1  UNL1        0.0000
     20 H           4.7900    4.7751   11.9413 H       1  UNL1        0.0000
     21 H           6.0269    5.4555   10.8892 H       1  UNL1        0.0000
     22 H           6.4154    5.0565   12.5567 H       1  UNL1        0.0000
     23 C           8.3498    3.5895    8.8607 C.3     1  UNL1        0.0000
     24 H           9.4202    3.6248    8.6476 H       1  UNL1        0.0000
     25 H           7.9340    2.8049    8.2286 H       1  UNL1        0.0000
     26 C           7.7332    4.9225    8.4399 C.3     1  UNL1        0.0000
     27 H           7.9498    5.1238    7.3938 H       1  UNL1        0.0000
     28 H           8.1333    5.7400    9.0339 H       1  UNL1        0.0000
     29 H           6.6538    4.9030    8.5600 H       1  UNL1        0.0000
@<TRIPOS>BOND
     1    27    26    1
     2    25    23    1
     3    26    29    1
     4    26    23    1
     5    26    28    1
     6    24    23    1
     7    23     1    1
     8     3     2    1
     9     2     4    1
    10     2     5    1
    11    17    16    1
    12     1     5    1
    13     1    16    1
    14     1     9    1
    15    21    19    1
    16     5     6    1
    17    16    19    1
    18    16    18    1
    19    10     9    1
    20    11     9    1
    21    19    20    1
    22    19    22    1
    23     9    12    1
    24     6     7    1
    25     6     8    1
    26    12    14    1
    27    12    15    1
    28    12    13    1
