@<TRIPOS>MOLECULE
2,5,6
 33 33 0 0 0
SMALL
GASTEIGER

@<TRIPOS>ATOM
      1 SI         12.7453    5.7632    4.4389 Si      1  UNL1        0.0000
      2 C          12.8981    6.9494    2.9439 C.3     1  UNL1        0.0000
      3 H          12.7842    6.4073    1.9973 H       1  UNL1        0.0000
      4 H          13.8945    7.4079    2.9158 H       1  UNL1        0.0000
      5 C          11.4117    6.6192    5.4781 C.3     1  UNL1        0.0000
      6 C          11.4956    8.0631    5.7502 C.3     1  UNL1        0.0000
      7 C          10.2398    8.4408    6.3296 C.3     1  UNL1        0.0000
      8 C           9.4108    7.3195    6.3530 C.2     1  UNL1        0.0000
      9 C          10.1322    6.2127    5.8404 C.2     1  UNL1        0.0000
     10 C          12.7991    8.7307    6.1676 C.3     1  UNL1        0.0000
     11 H          12.6865    9.8129    6.2583 H       1  UNL1        0.0000
     12 H          13.6183    8.5178    5.4772 H       1  UNL1        0.0000
     13 H          13.0905    8.3517    7.1515 H       1  UNL1        0.0000
     14 C           9.9474    9.7697    6.9639 C.3     1  UNL1        0.0000
     15 H           8.8794    9.9806    6.9620 H       1  UNL1        0.0000
     16 H          10.4564   10.5829    6.4448 H       1  UNL1        0.0000
     17 H          10.2817    9.7721    8.0040 H       1  UNL1        0.0000
     18 C           8.0040    7.2863    6.8657 C.3     1  UNL1        0.0000
     19 H           7.4449    6.4621    6.4273 H       1  UNL1        0.0000
     20 H           7.4815    8.2143    6.6330 H       1  UNL1        0.0000
     21 H           7.9899    7.1634    7.9506 H       1  UNL1        0.0000
     22 C           9.5951    4.8179    5.7551 C.3     1  UNL1        0.0000
     23 H           8.9021    4.6259    6.5726 H       1  UNL1        0.0000
     24 H          10.4075    4.1010    5.8197 H       1  UNL1        0.0000
     25 H           9.0643    4.6381    4.8162 H       1  UNL1        0.0000
     26 C          12.2680    4.0149    3.8154 C.3     1  UNL1        0.0000
     27 H          11.2911    4.0012    3.3453 H       1  UNL1        0.0000
     28 H          12.2630    3.2889    4.6200 H       1  UNL1        0.0000
     29 H          12.9914    3.6784    3.0800 H       1  UNL1        0.0000
     30 C          14.3759    5.5119    5.4177 C.3     1  UNL1        0.0000
     31 H          15.0808    4.9219    4.8407 H       1  UNL1        0.0000
     32 H          14.1959    4.9900    6.3521 H       1  UNL1        0.0000
     33 H          14.8558    6.4543    5.6574 H       1  UNL1        0.0000
@<TRIPOS>BOND
     1     3     2    1
     2     4     2    1
     3     2     1    1
     4    29    26    1
     5    27    26    1
     6    26     1    1
     7    26    28    1
     8     1    30    1
     9     1     5    1
    10    25    22    1
    11    31    30    1
    12    30    33    1
    13    30    32    1
    14    12    10    1
    15     5     6    1
    16     5     9    1
    17     6    10    1
    18     6     7    1
    19    22    24    1
    20    22     9    1
    21    22    23    1
    22     9     8    2
    23    10    11    1
    24    10    13    1
    25     7     8    1
    26     7    14    1
    27     8    18    1
    28    19    18    1
    29    16    14    1
    30    20    18    1
    31    18    21    1
    32    15    14    1
    33    14    17    1
