@<TRIPOS>MOLECULE
7,8,9
 39 39 0 0 0
SMALL
GASTEIGER

@<TRIPOS>ATOM
      1 SI          5.6640    1.7470    8.4416 Si      1  UNL1        0.0000
      2 C           3.5723   -1.0503    8.0714 C.3     1  UNL1        0.0000
      3 C           4.8010   -1.4479   10.2090 C.3     1  UNL1        0.0000
      4 C           2.4496   -0.5789   10.2604 C.3     1  UNL1        0.0000
      5 C           3.7797   -0.5451    9.5028 C.3     1  UNL1        0.0000
      6 C           4.3325    0.8497    9.4674 C.2     1  UNL1        0.0000
      7 C           4.0573    1.9169   10.2447 C.2     1  UNL1        0.0000
      8 C           4.9851    2.9857    9.7448 C.2     1  UNL1        0.0000
      9 C           4.9752    4.1760   10.3364 C.2     1  UNL1        0.0000
     10 C           5.8296    5.3640    9.9662 C.3     1  UNL1        0.0000
     11 C           7.3057    5.0376   10.2400 C.3     1  UNL1        0.0000
     12 C           5.6600    5.6622    8.4684 C.3     1  UNL1        0.0000
     13 C           5.4463    6.6110   10.7730 C.3     1  UNL1        0.0000
     14 C           7.4790    1.1617    8.5869 C.3     1  UNL1        0.0000
     15 C           5.3266    2.0790    6.5904 C.3     1  UNL1        0.0000
     16 H           3.1655   -2.0600    8.0759 H       1  UNL1        0.0000
     17 H           4.5184   -1.0596    7.5349 H       1  UNL1        0.0000
     18 H           2.8824   -0.4017    7.5352 H       1  UNL1        0.0000
     19 H           5.7520   -1.4223    9.6815 H       1  UNL1        0.0000
     20 H           4.4481   -2.4773   10.2421 H       1  UNL1        0.0000
     21 H           4.9677   -1.1036   11.2274 H       1  UNL1        0.0000
     22 H           1.6920   -0.0224    9.7119 H       1  UNL1        0.0000
     23 H           2.5672   -0.1239   11.2427 H       1  UNL1        0.0000
     24 H           2.1032   -1.6039   10.3832 H       1  UNL1        0.0000
     25 H           7.4637    4.8595   11.3013 H       1  UNL1        0.0000
     26 H           7.6039    4.1476    9.6905 H       1  UNL1        0.0000
     27 H           7.9397    5.8674    9.9304 H       1  UNL1        0.0000
     28 H           6.2552    6.5282    8.1823 H       1  UNL1        0.0000
     29 H           5.9808    4.8062    7.8799 H       1  UNL1        0.0000
     30 H           4.6173    5.8662    8.2322 H       1  UNL1        0.0000
     31 H           6.1130    7.4374   10.5292 H       1  UNL1        0.0000
     32 H           4.4275    6.9195   10.5513 H       1  UNL1        0.0000
     33 H           5.5254    6.4126   11.8403 H       1  UNL1        0.0000
     34 H           7.6495    0.3190    7.9240 H       1  UNL1        0.0000
     35 H           8.1694    1.9476    8.2957 H       1  UNL1        0.0000
     36 H           7.7326    0.8490    9.5942 H       1  UNL1        0.0000
     37 H           4.3145    2.4245    6.4113 H       1  UNL1        0.0000
     38 H           6.0105    2.8244    6.1959 H       1  UNL1        0.0000
     39 H           5.4722    1.1689    6.0170 H       1  UNL1        0.0000
@<TRIPOS>BOND
     1    39    15    1
     2    38    15    1
     3    37    15    1
     4    15     1    1
     5    17     2    1
     6    18     2    1
     7    29    12    1
     8    34    14    1
     9     2    16    1
    10     2     5    1
    11    28    12    1
    12    30    12    1
    13    35    14    1
    14     1    14    1
    15     1     6    1
    16     1     8    1
    17    12    10    1
    18    14    36    1
    19     6     5    1
    20     6     7    2
    21     5     3    1
    22     5     4    1
    23    19     3    1
    24    26    11    1
    25    22     4    1
    26     8     7    1
    27     8     9    2
    28    27    11    1
    29    10    11    1
    30    10     9    1
    31    10    13    1
    32     3    20    1
    33     3    21    1
    34    11    25    1
    35     4    24    1
    36     4    23    1
    37    31    13    1
    38    32    13    1
    39    13    33    1
