@<TRIPOS>MOLECULE
3,4,15
 31 31 0 0 0
SMALL
GASTEIGER

@<TRIPOS>ATOM
      1 SI          6.4630   14.7170    4.8383 Si      1  UNL1        0.0000
      2 O           3.8662   12.0204   -0.4590 O.3     1  UNL1        0.0000
      3 C           6.2504   14.2738    3.0310 C.3     1  UNL1        0.0000
      4 C           6.2181   14.3639    1.8087 C.3     1  UNL1        0.0000
      5 C           6.1402   14.6261    0.4205 C.ar    1  UNL1        0.0000
      6 C           6.7967   15.7014   -0.1721 C.ar    1  UNL1        0.0000
      7 H           7.4205   16.3435    0.4323 H       1  UNL1        0.0000
      8 C           6.6380   15.9354   -1.5252 C.ar    1  UNL1        0.0000
      9 H           7.1474   16.7664   -1.9896 H       1  UNL1        0.0000
     10 C           5.8201   15.1098   -2.2888 C.ar    1  UNL1        0.0000
     11 H           5.7016   15.3043   -3.3445 H       1  UNL1        0.0000
     12 C           5.1658   14.0411   -1.7104 C.ar    1  UNL1        0.0000
     13 H           4.5387   13.3955   -2.3060 H       1  UNL1        0.0000
     14 C           5.3266   13.7658   -0.3481 C.ar    1  UNL1        0.0000
     15 C           4.7336   12.6272    0.3504 C.3     1  UNL1        0.0000
     16 C           3.1246   10.9087   -0.0131 C.3     1  UNL1        0.0000
     17 H           3.7594   10.0204    0.0389 H       1  UNL1        0.0000
     18 H           2.3388   10.7515   -0.7520 H       1  UNL1        0.0000
     19 H           2.6809   11.0930    0.9687 H       1  UNL1        0.0000
     20 C           6.2511   16.6129    4.9226 C.3     1  UNL1        0.0000
     21 H           6.3607   16.9708    5.9418 H       1  UNL1        0.0000
     22 H           5.2714   16.9201    4.5697 H       1  UNL1        0.0000
     23 H           6.9930   17.1215    4.3147 H       1  UNL1        0.0000
     24 C           5.1317   13.8286    5.8679 C.3     1  UNL1        0.0000
     25 H           5.2184   14.0737    6.9227 H       1  UNL1        0.0000
     26 H           5.2201   12.7496    5.7731 H       1  UNL1        0.0000
     27 H           4.1303   14.1046    5.5498 H       1  UNL1        0.0000
     28 C           8.2215   14.2009    5.3621 C.3     1  UNL1        0.0000
     29 H           8.4294   14.5021    6.3849 H       1  UNL1        0.0000
     30 H           8.9764   14.6548    4.7264 H       1  UNL1        0.0000
     31 H           8.3486   13.1242    5.3056 H       1  UNL1        0.0000
@<TRIPOS>BOND
     1    11    10    1
     2    13    12    1
     3    10    12   ar
     4    10     8   ar
     5     9     8    1
     6    12    14   ar
     7     8     6   ar
     8    18    16    1
     9     2    16    1
    10     2    15    1
    11    14    15    1
    12    14     5   ar
    13     6     5   ar
    14     6     7    1
    15    16    17    1
    16    16    19    1
    17     5     4    1
    18     4     3    1
    19     3     1    1
    20    23    20    1
    21    22    20    1
    22    30    28    1
    23     1    20    1
    24     1    28    1
    25     1    24    1
    26    20    21    1
    27    31    28    1
    28    28    29    1
    29    27    24    1
    30    26    24    1
    31    24    25    1
