@<TRIPOS>MOLECULE
5,7,9
 10 10 0 0 0
SMALL
GASTEIGER

@<TRIPOS>ATOM
      1 C           4.2730    9.0172   14.0468 C.2     1  UNL1       -0.0654
      2 H           5.0930    8.8751   14.7333 H       1  UNL1        0.0615
      3 C           4.2689    8.6563   12.6903 C.2     1  UNL1       -0.0654
      4 H           5.0868    8.1951   12.1611 H       1  UNL1        0.0615
      5 C           3.0600    9.0684   12.1223 C.2     1  UNL1       -0.0763
      6 H           2.7978    9.0044   11.0769 H       1  UNL1        0.0578
      7 C           2.2760    9.6704   13.1320 C.3     1  UNL1        0.0054
      8 H           1.4381   10.3375   12.9508 H       1  UNL1        0.0394
      9 C           3.0587    9.6425   14.3418 C.2     1  UNL1       -0.0763
     10 H           2.8307   10.1957   15.2461 H       1  UNL1        0.0578
@<TRIPOS>BOND
     1     6     5    1
     2     5     3    2
     3     5     7    1
     4     4     3    1
     5     3     1    1
     6     8     7    1
     7     7     9    1
     8     1     9    2
     9     1     2    1
    10     9    10    1
