@<TRIPOS>MOLECULE
1,4,5
 22 22 0 0 0
SMALL
GASTEIGER

@<TRIPOS>ATOM
      1 C           5.7918   21.0752    9.9474 C.2     1  UNL1        0.0000
      2 C           5.4319   21.1421   11.2618 C.2     1  UNL1        0.0000
      3 C           6.3383   20.3561   12.0248 C.2     1  UNL1        0.0000
      4 C           7.2661   19.8149   11.1812 C.2     1  UNL1        0.0000
      5 C           6.9669   20.2097    9.8035 C.3     1  UNL1        0.0000
      6 SI          6.6544   18.6732    8.6561 Si      1  UNL1        0.0000
      7 C           7.6894   17.1973    9.3029 C.3     1  UNL1        0.0000
      8 C           7.0630   19.0033    6.8250 C.3     1  UNL1        0.0000
      9 C           4.7993   18.2564    8.8587 C.3     1  UNL1        0.0000
     10 H           5.2591   21.5052    9.1135 H       1  UNL1        0.0000
     11 H           4.5974   21.6862   11.6694 H       1  UNL1        0.0000
     12 H           6.2918   20.2292   13.0931 H       1  UNL1        0.0000
     13 H           8.0709   19.1456   11.4504 H       1  UNL1        0.0000
     14 H           7.3417   16.8660   10.2764 H       1  UNL1        0.0000
     15 H           7.5949   16.3579    8.6216 H       1  UNL1        0.0000
     16 H           8.7461   17.4354    9.3852 H       1  UNL1        0.0000
     17 H           8.1391   19.0881    6.6737 H       1  UNL1        0.0000
     18 H           6.6989   18.1993    6.1929 H       1  UNL1        0.0000
     19 H           6.6136   19.9302    6.4745 H       1  UNL1        0.0000
     20 H           4.5155   18.2147    9.9055 H       1  UNL1        0.0000
     21 H           4.1656   18.9925    8.3751 H       1  UNL1        0.0000
     22 H           4.5785   17.2911    8.4170 H       1  UNL1        0.0000
@<TRIPOS>BOND
     1    18     8    1
     2    19     8    1
     3    17     8    1
     4     8     6    1
     5    21     9    1
     6    22     9    1
     7    15     7    1
     8     6     9    1
     9     6     7    1
    10     6     5    1
    11     9    20    1
    12    10     1    1
    13     7    16    1
    14     7    14    1
    15     5     1    1
    16     5     4    1
    17     1     2    2
    18     4    13    1
    19     4     3    2
    20     2    11    1
    21     2     3    1
    22     3    12    1
