@<TRIPOS>MOLECULE
2,3,6
 22 22 0 0 0
SMALL
GASTEIGER

@<TRIPOS>ATOM
      1 SI          7.9516    7.0156   14.9202 Si      1  UNL1        0.0000
      2 C           7.1389    8.6936   15.3130 C.3     1  UNL1        0.0000
      3 C           5.7458    8.8786   14.9291 C.2     1  UNL1        0.0000
      4 C           5.0652    9.4909   15.9592 C.2     1  UNL1        0.0000
      5 C           5.9730    9.7371   17.0133 C.2     1  UNL1        0.0000
      6 C           7.2116    9.2610   16.6476 C.2     1  UNL1        0.0000
      7 C           9.5148    7.1196   13.8106 C.3     1  UNL1        0.0000
      8 C           8.4071    6.1524   16.5660 C.3     1  UNL1        0.0000
      9 C           6.6841    5.9193   13.9942 C.3     1  UNL1        0.0000
     10 H           5.2943    8.4520   14.0447 H       1  UNL1        0.0000
     11 H           4.0112    9.7215   15.9785 H       1  UNL1        0.0000
     12 H           5.7255   10.2079   17.9515 H       1  UNL1        0.0000
     13 H           8.0760    9.2140   17.2903 H       1  UNL1        0.0000
     14 H           9.4221    7.9123   13.0702 H       1  UNL1        0.0000
     15 H          10.4151    7.3056   14.3871 H       1  UNL1        0.0000
     16 H           9.6626    6.1815   13.2845 H       1  UNL1        0.0000
     17 H           8.8490    5.1787   16.3812 H       1  UNL1        0.0000
     18 H           9.1178    6.7336   17.1439 H       1  UNL1        0.0000
     19 H           7.5277    6.0048   17.1849 H       1  UNL1        0.0000
     20 H           6.4320    6.3348   13.0230 H       1  UNL1        0.0000
     21 H           7.0868    4.9250   13.8293 H       1  UNL1        0.0000
     22 H           5.7640    5.8101   14.5593 H       1  UNL1        0.0000
@<TRIPOS>BOND
     1    20     9    1
     2    14     7    1
     3    16     7    1
     4     7    15    1
     5     7     1    1
     6    21     9    1
     7     9    22    1
     8     9     1    1
     9    10     3    1
    10     1     2    1
    11     1     8    1
    12     3     2    1
    13     3     4    2
    14     2     6    1
    15     4    11    1
    16     4     5    1
    17    17     8    1
    18     8    18    1
    19     8    19    1
    20     6     5    2
    21     6    13    1
    22     5    12    1
