@<TRIPOS>MOLECULE
9,12,14
 55 54 0 0 0
SMALL
GASTEIGER

@<TRIPOS>ATOM
      1 SI          6.7129   20.2111    9.4313 Si      1  UNL1        0.0000
      2 H           6.1233   20.2090    8.0828 H       1  UNL1        0.0000
      3 H           5.6384   19.7588   10.3308 H       1  UNL1        0.0000
      4 SI          7.9825   17.6654    8.4036 Si      1  UNL1        0.0000
      5 SI          9.8191   20.2389    8.9283 Si      1  UNL1        0.0000
      6 SI          8.5831   18.6387   11.3839 Si      1  UNL1        0.0000
      7 O           7.0562   21.7658    9.8262 O.3     1  UNL1        0.0000
      8 O           5.3301   22.8000    8.6580 O.3     1  UNL1        0.0000
      9 C           5.8237   22.7059   12.2424 C.3     1  UNL1        0.0000
     10 H           6.6289   21.9945   12.3726 H       1  UNL1        0.0000
     11 H           5.1953   22.8248   13.1210 H       1  UNL1        0.0000
     12 C           5.1855   22.7487   10.9866 C.3     1  UNL1        0.0000
     13 H           4.1214   22.9161   10.8484 H       1  UNL1        0.0000
     14 C           6.0285   22.6725    9.8393 C.3     1  UNL1        0.0000
     15 C           6.0886   23.1389    7.5091 C.3     1  UNL1        0.0000
     16 H           6.4214   24.1800    7.5656 H       1  UNL1        0.0000
     17 H           5.4196   23.0079    6.6601 H       1  UNL1        0.0000
     18 H           6.9569   22.4895    7.4054 H       1  UNL1        0.0000
     19 C           8.3076   19.1880    9.5479 C.3     1  UNL1        0.0000
     20 C           6.2052   16.9906    8.5778 C.3     1  UNL1        0.0000
     21 H           5.9516   16.7517    9.6020 H       1  UNL1        0.0000
     22 H           6.0776   16.0851    7.9917 H       1  UNL1        0.0000
     23 H           5.4810   17.7153    8.2254 H       1  UNL1        0.0000
     24 C           8.1426   18.0836    6.5453 C.3     1  UNL1        0.0000
     25 H           7.9705   17.1994    5.9382 H       1  UNL1        0.0000
     26 H           9.1225   18.4687    6.2900 H       1  UNL1        0.0000
     27 H           7.4082   18.8245    6.2486 H       1  UNL1        0.0000
     28 C           9.1553   16.1920    8.7232 C.3     1  UNL1        0.0000
     29 H           9.0066   15.7662    9.7085 H       1  UNL1        0.0000
     30 H          10.1972   16.4738    8.6375 H       1  UNL1        0.0000
     31 H           8.9720   15.4043    7.9988 H       1  UNL1        0.0000
     32 C           9.4110   21.2370    7.3476 C.3     1  UNL1        0.0000
     33 H           8.5145   20.8772    6.8562 H       1  UNL1        0.0000
     34 H          10.2203   21.1911    6.6250 H       1  UNL1        0.0000
     35 H           9.2619   22.2810    7.5995 H       1  UNL1        0.0000
     36 C          11.3142   19.1364    8.4681 C.3     1  UNL1        0.0000
     37 H          11.1026   18.4971    7.6188 H       1  UNL1        0.0000
     38 H          11.6256   18.5027    9.2882 H       1  UNL1        0.0000
     39 H          12.1623   19.7597    8.2018 H       1  UNL1        0.0000
     40 C          10.4392   21.4886   10.2247 C.3     1  UNL1        0.0000
     41 H          11.2303   22.1075    9.8108 H       1  UNL1        0.0000
     42 H          10.8292   21.0097   11.1158 H       1  UNL1        0.0000
     43 H           9.6374   22.1533   10.5260 H       1  UNL1        0.0000
     44 C           8.3820   20.0485   12.6568 C.3     1  UNL1        0.0000
     45 H           9.0781   19.9412   13.4833 H       1  UNL1        0.0000
     46 H           7.3809   20.0461   13.0769 H       1  UNL1        0.0000
     47 H           8.5588   21.0188   12.2101 H       1  UNL1        0.0000
     48 C           7.3204   17.3113   11.9370 C.3     1  UNL1        0.0000
     49 H           7.4334   17.1060   12.9975 H       1  UNL1        0.0000
     50 H           7.4498   16.3725   11.4115 H       1  UNL1        0.0000
     51 H           6.3005   17.6445   11.7782 H       1  UNL1        0.0000
     52 C          10.3120   17.8864   11.7014 C.3     1  UNL1        0.0000
     53 H          11.0928   18.6354   11.6326 H       1  UNL1        0.0000
     54 H          10.5520   17.0925   11.0057 H       1  UNL1        0.0000
     55 H          10.3549   17.4643   12.7012 H       1  UNL1        0.0000
@<TRIPOS>BOND
     1    25    24    1
     2    27    24    1
     3    26    24    1
     4    24     4    1
     5    34    32    1
     6    17    15    1
     7    33    32    1
     8    32    35    1
     9    32     5    1
    10    18    15    1
    11    15    16    1
    12    15     8    1
    13    37    36    1
    14    22    20    1
    15    31    28    1
    16     2     1    1
    17    39    36    1
    18    23    20    1
    19     4    20    1
    20     4    28    1
    21     4    19    1
    22    36     5    1
    23    36    38    1
    24    20    21    1
    25    30    28    1
    26     8    14    1
    27    28    29    1
    28     5    19    1
    29     5    40    1
    30     1    19    1
    31     1     7    1
    32     1     3    1
    33    19     6    1
    34    41    40    1
    35     7    14    1
    36    14    12    1
    37    40    43    1
    38    40    42    1
    39    13    12    1
    40    12     9    1
    41    54    52    1
    42     6    52    1
    43     6    48    1
    44     6    44    1
    45    50    48    1
    46    53    52    1
    47    52    55    1
    48    51    48    1
    49    48    49    1
    50    47    44    1
    51     9    10    1
    52     9    11    1
    53    44    46    1
    54    44    45    1
