@<TRIPOS>MOLECULE
8,11,13
 54 53 0 0 0
SMALL
GASTEIGER

@<TRIPOS>ATOM
      1 SI          8.6962   -0.7121    4.4582 Si      1  UNL1        0.0000
      2 H           7.3722   -0.1811    4.8147 H       1  UNL1        0.0000
      3 H           8.5419   -2.1735    4.5889 H       1  UNL1        0.0000
      4 SI          9.6380   -0.5751    7.3155 Si      1  UNL1        0.0000
      5 SI         10.1160    1.9257    5.3483 Si      1  UNL1        0.0000
      6 SI         11.7881   -0.7494    4.9450 Si      1  UNL1        0.0000
      7 O           9.0236   -0.3624    2.9013 O.3     1  UNL1        0.0000
      8 C           6.3871    0.3793    2.0537 C.3     1  UNL1        0.0000
      9 H           6.7869    0.9386    2.8914 H       1  UNL1        0.0000
     10 H           5.3064    0.4574    1.9609 H       1  UNL1        0.0000
     11 C           6.9689   -0.8745    1.7431 C.3     1  UNL1        0.0000
     12 H           6.3772   -1.7240    1.4058 H       1  UNL1        0.0000
     13 C           8.3896   -0.9683    1.8355 C.3     1  UNL1        0.0000
     14 C           9.0553   -2.2662    1.4419 C.3     1  UNL1        0.0000
     15 H          10.1120   -2.0937    1.2444 H       1  UNL1        0.0000
     16 H           8.5919   -2.6947    0.5566 H       1  UNL1        0.0000
     17 H           8.9765   -2.9787    2.2649 H       1  UNL1        0.0000
     18 C          10.0945   -0.0074    5.5266 C.3     1  UNL1        0.0000
     19 C           7.7757   -0.4363    7.7182 C.3     1  UNL1        0.0000
     20 H           7.6036   -0.5632    8.7832 H       1  UNL1        0.0000
     21 H           7.2126   -1.2050    7.2012 H       1  UNL1        0.0000
     22 H           7.3581    0.5203    7.4336 H       1  UNL1        0.0000
     23 C          10.0015   -2.4277    7.6156 C.3     1  UNL1        0.0000
     24 H          11.0564   -2.6640    7.5464 H       1  UNL1        0.0000
     25 H           9.4727   -3.0466    6.8992 H       1  UNL1        0.0000
     26 H           9.6673   -2.7229    8.6060 H       1  UNL1        0.0000
     27 C          10.5474    0.3902    8.6905 C.3     1  UNL1        0.0000
     28 H          10.2115    1.4195    8.7436 H       1  UNL1        0.0000
     29 H          11.6204    0.3975    8.5455 H       1  UNL1        0.0000
     30 H          10.3537   -0.0643    9.6575 H       1  UNL1        0.0000
     31 C          10.1232    2.5552    3.5487 C.3     1  UNL1        0.0000
     32 H          11.1271    2.7345    3.1807 H       1  UNL1        0.0000
     33 H           9.5732    3.4870    3.4567 H       1  UNL1        0.0000
     34 H           9.6562    1.8398    2.8820 H       1  UNL1        0.0000
     35 C           8.5726    2.7003    6.1703 C.3     1  UNL1        0.0000
     36 H           8.5591    3.7738    6.0079 H       1  UNL1        0.0000
     37 H           8.5499    2.5349    7.2414 H       1  UNL1        0.0000
     38 H           7.6573    2.2985    5.7495 H       1  UNL1        0.0000
     39 C          11.6369    2.7264    6.1877 C.3     1  UNL1        0.0000
     40 H          12.5616    2.4304    5.7054 H       1  UNL1        0.0000
     41 H          11.7163    2.4739    7.2373 H       1  UNL1        0.0000
     42 H          11.5686    3.8079    6.1181 H       1  UNL1        0.0000
     43 C          11.6498   -2.5905    4.4419 C.3     1  UNL1        0.0000
     44 H          11.1113   -2.6878    3.5067 H       1  UNL1        0.0000
     45 H          11.1347   -3.1890    5.1826 H       1  UNL1        0.0000
     46 H          12.6349   -3.0251    4.2979 H       1  UNL1        0.0000
     47 C          12.5272    0.1288    3.4240 C.3     1  UNL1        0.0000
     48 H          12.9031    1.1164    3.6670 H       1  UNL1        0.0000
     49 H          11.7884    0.2427    2.6405 H       1  UNL1        0.0000
     50 H          13.3561   -0.4418    3.0136 H       1  UNL1        0.0000
     51 C          13.1192   -0.6661    6.3160 C.3     1  UNL1        0.0000
     52 H          14.0728   -1.0160    5.9326 H       1  UNL1        0.0000
     53 H          12.8676   -1.2821    7.1711 H       1  UNL1        0.0000
     54 H          13.2667    0.3461    6.6721 H       1  UNL1        0.0000
@<TRIPOS>BOND
     1    16    14    1
     2    15    14    1
     3    12    11    1
     4    14    13    1
     5    14    17    1
     6    11    13    1
     7    11     8    1
     8    13     7    1
     9    10     8    1
    10     8     9    1
    11    49    47    1
    12    34    31    1
    13     7     1    1
    14    50    47    1
    15    32    31    1
    16    47    48    1
    17    47     6    1
    18    33    31    1
    19    44    43    1
    20    31     5    1
    21    46    43    1
    22    43     6    1
    23    43    45    1
    24     1     3    1
    25     1     2    1
    26     1    18    1
    27     6    18    1
    28     6    51    1
    29     5    18    1
    30     5    35    1
    31     5    39    1
    32    18     4    1
    33    40    39    1
    34    38    35    1
    35    52    51    1
    36    36    35    1
    37    42    39    1
    38    35    37    1
    39    39    41    1
    40    51    54    1
    41    51    53    1
    42    25    23    1
    43    21    19    1
    44     4    23    1
    45     4    19    1
    46     4    27    1
    47    22    19    1
    48    24    23    1
    49    23    26    1
    50    19    20    1
    51    29    27    1
    52    27    28    1
    53    27    30    1
