@<TRIPOS>MOLECULE
6,7,15
 49 51 0 0 0
SMALL
GASTEIGER

@<TRIPOS>ATOM
      1 N          10.1816   10.6643    2.4383 N.pl3   1  UNL1       -0.2764
      2 C           9.3068   10.4784    1.3362 C.ar    1  UNL1        0.0452
      3 N           5.6900   10.4786    0.8188 N.pl3   1  UNL1       -0.2764
      4 N           3.8823   10.8724    1.9000 N.pl3   1  UNL1       -0.3073
      5 C           7.0756   10.3846    0.5304 C.ar    1  UNL1        0.0452
      6 C           5.2199   10.9757    1.9966 C.3     1  UNL1        0.1912
      7 C           9.7351   10.8043    3.7203 C.3     1  UNL1        0.1912
      8 C           8.8915    9.9077   -0.9495 C.ar    1  UNL1       -0.0582
      9 H           9.2563    9.6357   -1.9287 H       1  UNL1        0.0619
     10 N          10.8606   10.8750    4.4598 N.pl3   1  UNL1       -0.3073
     11 C           3.5125   10.3315    0.6986 C.2     1  UNL1        0.0082
     12 H           2.4908   10.1619    0.4258 H       1  UNL1        0.0793
     13 C           7.5299   10.0419   -0.7387 C.ar    1  UNL1       -0.0396
     14 H           6.8516    9.8828   -1.5634 H       1  UNL1        0.0636
     15 C           7.9437   10.6442    1.5981 C.ar    1  UNL1        0.0284
     16 C           9.7891   10.1037    0.0851 C.ar    1  UNL1       -0.0396
     17 H          10.8421    9.9548   -0.1005 H       1  UNL1        0.0636
     18 C           4.6544   10.0802    0.0148 C.2     1  UNL1        0.0128
     19 H           4.7847    9.6428   -0.9526 H       1  UNL1        0.0797
     20 C          11.5514   10.6592    2.3981 C.2     1  UNL1        0.0128
     21 H          12.1208   10.5818    1.4962 H       1  UNL1        0.0797
     22 C          11.9795   10.7894    3.6752 C.2     1  UNL1        0.0082
     23 H          12.9717   10.8342    4.0757 H       1  UNL1        0.0793
     24 C           2.9708   11.3250    2.9194 C.3     1  UNL1        0.0139
     25 H           3.3537   10.9848    3.8853 H       1  UNL1        0.0464
     26 H           1.9945   10.8697    2.7381 H       1  UNL1        0.0464
     27 C           2.8672   12.8539    2.9279 C.3     1  UNL1       -0.0374
     28 H           2.2211   13.1516    3.7552 H       1  UNL1        0.0280
     29 H           3.8669   13.2544    3.1115 H       1  UNL1        0.0280
     30 C          10.9048   10.9471    5.8970 C.3     1  UNL1        0.0139
     31 H           9.9586   11.3669    6.2357 H       1  UNL1        0.0464
     32 H          11.7185   11.6183    6.1877 H       1  UNL1        0.0464
     33 C           2.3227   13.4436    1.6261 C.3     1  UNL1       -0.0545
     34 H           2.9074   13.0717    0.7816 H       1  UNL1        0.0263
     35 H           2.4579   14.5260    1.6605 H       1  UNL1        0.0263
     36 C          11.1147    9.5699    6.5348 C.3     1  UNL1       -0.0374
     37 H          12.0758    9.1566    6.2175 H       1  UNL1        0.0280
     38 H          11.1515    9.7036    7.6176 H       1  UNL1        0.0280
     39 C           9.9973    8.5919    6.1781 C.3     1  UNL1       -0.0545
     40 H          10.0421    8.3659    5.1112 H       1  UNL1        0.0263
     41 H           9.0256    9.0534    6.3735 H       1  UNL1        0.0263
     42 C          10.1156    7.2927    6.9647 C.3     1  UNL1       -0.0652
     43 H           9.3324    6.6013    6.6663 H       1  UNL1        0.0230
     44 H          10.0215    7.4798    8.0322 H       1  UNL1        0.0230
     45 H          11.0789    6.8193    6.7842 H       1  UNL1        0.0230
     46 C           0.8455   13.1400    1.3996 C.3     1  UNL1       -0.0652
     47 H           0.4928   13.6341    0.4973 H       1  UNL1        0.0230
     48 H           0.2516   13.4966    2.2382 H       1  UNL1        0.0230
     49 H           0.6702   12.0729    1.2867 H       1  UNL1        0.0230
@<TRIPOS>BOND
     1     9     8    1
     2    14    13    1
     3    19    18    1
     4     8    13   ar
     5     8    16   ar
     6    13     5   ar
     7    17    16    1
     8    18    11    2
     9    18     3    1
    10    16     2   ar
    11    12    11    1
    12    47    46    1
    13     5     3    1
    14     5    15   ar
    15    11     4    1
    16    34    33    1
    17     3     6    1
    18    49    46    1
    19     2    15   ar
    20     2     1    1
    21    46    33    1
    22    46    48    1
    23    21    20    1
    24    33    35    1
    25    33    27    1
    26     4     6    1
    27     4    24    1
    28    20     1    1
    29    20    22    2
    30     1     7    1
    31    26    24    1
    32    24    27    1
    33    24    25    1
    34    27    29    1
    35    27    28    1
    36    22    23    1
    37    22    10    1
    38     7    10    1
    39    10    30    1
    40    40    39    1
    41    30    32    1
    42    30    31    1
    43    30    36    1
    44    39    41    1
    45    39    36    1
    46    39    42    1
    47    37    36    1
    48    36    38    1
    49    43    42    1
    50    45    42    1
    51    42    44    1
