@<TRIPOS>MOLECULE
3,4,6
 48 50 0 0 0
SMALL
GASTEIGER

@<TRIPOS>ATOM
      1 SI         -1.2836   -3.0175   -7.6171 Si      1  UNL1        0.0000
      2 O          -1.9219   -4.4885   -7.9564 O.3     1  UNL1        0.0000
      3 C          -2.6387   -2.1177   -8.5593 C.3     1  UNL1        0.0000
      4 C          -3.3142   -3.1109   -9.3095 C.3     1  UNL1        0.0000
      5 C          -4.0631   -2.6378  -10.5581 C.3     1  UNL1        0.0000
      6 C          -4.9509   -1.5768   -9.8914 C.3     1  UNL1        0.0000
      7 C          -2.6969   -4.5079   -9.1467 C.3     1  UNL1        0.0000
      8 C          -3.1435   -2.0409  -11.6357 C.3     1  UNL1        0.0000
      9 H          -3.7523   -1.5549  -12.3966 H       1  UNL1        0.0000
     10 H          -2.5433   -2.8069  -12.1190 H       1  UNL1        0.0000
     11 H          -2.4714   -1.2965  -11.2156 H       1  UNL1        0.0000
     12 C          -4.9346   -3.7069  -11.2189 C.3     1  UNL1        0.0000
     13 H          -4.3371   -4.4859  -11.6845 H       1  UNL1        0.0000
     14 H          -5.5382   -3.2424  -11.9969 H       1  UNL1        0.0000
     15 H          -5.6028   -4.1590  -10.4918 H       1  UNL1        0.0000
     16 C          -1.7218   -4.7824  -10.3022 C.3     1  UNL1        0.0000
     17 H          -1.0331   -3.9510  -10.4159 H       1  UNL1        0.0000
     18 H          -2.2489   -4.9506  -11.2347 H       1  UNL1        0.0000
     19 H          -1.1464   -5.6724  -10.0585 H       1  UNL1        0.0000
     20 C          -3.6616   -5.6891   -9.0241 C.3     1  UNL1        0.0000
     21 H          -3.1166   -6.5216   -8.5847 H       1  UNL1        0.0000
     22 H          -4.0407   -5.9928   -9.9933 H       1  UNL1        0.0000
     23 H          -4.4997   -5.4458   -8.3779 H       1  UNL1        0.0000
     24 C           0.4205   -2.6737   -8.4028 C.ar    1  UNL1        0.0000
     25 C           0.5889   -1.9297   -9.5673 C.ar    1  UNL1        0.0000
     26 C           1.8449   -1.7037  -10.1021 C.ar    1  UNL1        0.0000
     27 C           2.9664   -2.2208   -9.4773 C.ar    1  UNL1        0.0000
     28 C           2.8211   -2.9618   -8.3164 C.ar    1  UNL1        0.0000
     29 C           1.5620   -3.1802   -7.7879 C.ar    1  UNL1        0.0000
     30 C          -0.9903   -2.9469   -5.7584 C.ar    1  UNL1        0.0000
     31 C          -0.2268   -1.9105   -5.2309 C.ar    1  UNL1        0.0000
     32 C           0.0524   -1.8444   -3.8779 C.ar    1  UNL1        0.0000
     33 C          -0.4213   -2.8296   -3.0266 C.ar    1  UNL1        0.0000
     34 C          -1.1595   -3.8822   -3.5403 C.ar    1  UNL1        0.0000
     35 C          -1.4387   -3.9393   -4.8946 C.ar    1  UNL1        0.0000
     36 H          -2.5071   -1.1315   -8.9955 H       1  UNL1        0.0000
     37 H          -4.5542   -0.5843  -10.1237 H       1  UNL1        0.0000
     38 H          -5.9718   -1.6180  -10.2817 H       1  UNL1        0.0000
     39 H          -0.2778   -1.5205  -10.0665 H       1  UNL1        0.0000
     40 H           1.9498   -1.1230  -11.0078 H       1  UNL1        0.0000
     41 H           3.9486   -2.0466   -9.8922 H       1  UNL1        0.0000
     42 H           3.6921   -3.3682   -7.8225 H       1  UNL1        0.0000
     43 H           1.4550   -3.7537   -6.8788 H       1  UNL1        0.0000
     44 H           0.1670   -1.1542   -5.8958 H       1  UNL1        0.0000
     45 H           0.6432   -1.0284   -3.4864 H       1  UNL1        0.0000
     46 H          -0.2054   -2.7809   -1.9690 H       1  UNL1        0.0000
     47 H          -1.5166   -4.6618   -2.8828 H       1  UNL1        0.0000
     48 H          -2.0034   -4.7653   -5.2955 H       1  UNL1        0.0000
@<TRIPOS>BOND
     1     9     8    1
     2    10     8    1
     3    14    12    1
     4    13    12    1
     5     8    11    1
     6     8     5    1
     7    18    16    1
     8    12     5    1
     9    12    15    1
    10    40    26    1
    11     5     6    1
    12     5     4    1
    13    17    16    1
    14    16    19    1
    15    16     7    1
    16    38     6    1
    17    37     6    1
    18    26    25   ar
    19    26    27   ar
    20    39    25    1
    21    22    20    1
    22    41    27    1
    23    25    24   ar
    24    27    28   ar
    25     4     7    1
    26     4     3    1
    27     7    20    1
    28     7     2    1
    29    20    21    1
    30    20    23    1
    31    36     3    1
    32     3     1    1
    33    24    29   ar
    34    24     1    1
    35    28    42    1
    36    28    29   ar
    37     2     1    1
    38    29    43    1
    39     1    30    1
    40    44    31    1
    41    30    31   ar
    42    30    35   ar
    43    48    35    1
    44    31    32   ar
    45    35    34   ar
    46    32    45    1
    47    32    33   ar
    48    34    33   ar
    49    34    47    1
    50    33    46    1
