@<TRIPOS>MOLECULE
2,3,6
 34 34 0 0 0
SMALL
GASTEIGER

@<TRIPOS>ATOM
      1 SI          0.6822   12.6068    2.6673 Si      1  UNL1        0.0000
      2 C           1.8372   12.3733    4.1630 C.3     1  UNL1        0.0000
      3 C           3.2751   12.2349    3.8459 C.2     1  UNL1        0.0000
      4 C           3.7648   11.0967    4.4323 C.2     1  UNL1        0.0000
      5 C           2.7013   10.4388    5.1257 C.2     1  UNL1        0.0000
      6 C           1.5546   11.1749    4.9827 C.2     1  UNL1        0.0000
      7 C           0.9946   11.2110    1.3925 C.3     1  UNL1        0.0000
      8 H           2.0183   11.2315    1.0340 H       1  UNL1        0.0000
      9 H           0.3390   11.2946    0.5315 H       1  UNL1        0.0000
     10 H           0.8318   10.2373    1.8426 H       1  UNL1        0.0000
     11 C           0.9377   14.2873    1.7693 C.3     1  UNL1        0.0000
     12 H           0.9842   15.1115    2.4780 H       1  UNL1        0.0000
     13 H           0.1051   14.4837    1.1009 H       1  UNL1        0.0000
     14 H           1.8390   14.3029    1.1664 H       1  UNL1        0.0000
     15 C          -1.1898   12.5739    3.0819 C.3     1  UNL1        0.0000
     16 H          -1.5400   11.5723    3.3029 H       1  UNL1        0.0000
     17 H          -1.7624   12.9366    2.2334 H       1  UNL1        0.0000
     18 H          -1.4274   13.2066    3.9322 H       1  UNL1        0.0000
     19 C           4.0446   13.1261    2.9131 C.3     1  UNL1        0.0000
     20 H           3.5057   14.0504    2.7209 H       1  UNL1        0.0000
     21 H           4.2089   12.6229    1.9569 H       1  UNL1        0.0000
     22 H           5.0241   13.3688    3.3274 H       1  UNL1        0.0000
     23 C           5.1714   10.5905    4.4015 C.3     1  UNL1        0.0000
     24 H           5.7802   11.1647    3.7077 H       1  UNL1        0.0000
     25 H           5.1932    9.5455    4.0938 H       1  UNL1        0.0000
     26 H           5.6220   10.6576    5.3940 H       1  UNL1        0.0000
     27 C           2.8431    9.1195    5.8142 C.3     1  UNL1        0.0000
     28 H           3.8244    9.0282    6.2744 H       1  UNL1        0.0000
     29 H           2.7302    8.3055    5.0948 H       1  UNL1        0.0000
     30 H           2.0822    8.9928    6.5812 H       1  UNL1        0.0000
     31 C           0.2088   10.7758    5.5120 C.3     1  UNL1        0.0000
     32 H           0.2861   10.4183    6.5399 H       1  UNL1        0.0000
     33 H          -0.2108    9.9622    4.9161 H       1  UNL1        0.0000
     34 H          -0.4905   11.6072    5.4987 H       1  UNL1        0.0000
@<TRIPOS>BOND
     1     9     7    1
     2     8     7    1
     3    13    11    1
     4    14    11    1
     5     7    10    1
     6     7     1    1
     7    11    12    1
     8    11     1    1
     9    21    19    1
    10    17    15    1
    11     1    15    1
    12     1     2    1
    13    20    19    1
    14    19    22    1
    15    19     3    1
    16    15    16    1
    17    15    18    1
    18    24    23    1
    19     3     2    1
    20     3     4    2
    21    25    23    1
    22     2     6    1
    23    23     4    1
    24    23    26    1
    25     4     5    1
    26    33    31    1
    27     6     5    2
    28     6    31    1
    29    29    27    1
    30     5    27    1
    31    34    31    1
    32    31    32    1
    33    27    28    1
    34    27    30    1
