@<TRIPOS>MOLECULE
3,5,7
 10 10 0 0 0
SMALL
GASTEIGER

@<TRIPOS>ATOM
      1 C           5.4839   11.7117   -4.5660 C.2     1  UNL1       -0.0654
      2 H           4.9768   11.1932   -5.3585 H       1  UNL1        0.0615
      3 C           6.8736   11.8160   -4.4158 C.2     1  UNL1       -0.0763
      4 H           7.6119   11.4575   -5.1202 H       1  UNL1        0.0578
      5 C           7.1316   12.7212   -3.3393 C.3     1  UNL1        0.0054
      6 H           8.0796   13.2067   -3.1502 H       1  UNL1        0.0394
      7 C           5.8671   13.1331   -2.8332 C.2     1  UNL1       -0.0763
      8 H           5.7031   13.9386   -2.1360 H       1  UNL1        0.0578
      9 C           4.8682   12.4994   -3.5869 C.2     1  UNL1       -0.0654
     10 H           3.8085   12.6675   -3.4945 H       1  UNL1        0.0615
@<TRIPOS>BOND
     1     2     1    1
     2     4     3    1
     3     1     3    2
     4     1     9    1
     5     3     5    1
     6     9    10    1
     7     9     7    2
     8     5     6    1
     9     5     7    1
    10     7     8    1
