@<TRIPOS>MOLECULE
3,4,7
 44 45 0 0 0
SMALL
GASTEIGER

@<TRIPOS>ATOM
      1 SI          8.9065   11.1189    9.8056 Si      1  UNL1        0.0000
      2 C           7.4941   10.1008    9.2051 C.1     1  UNL1        0.0000
      3 C           6.5242    9.4213    8.9047 C.1     1  UNL1        0.0000
      4 C           5.3468    8.7003    8.5962 C.3     1  UNL1        0.0000
      5 C           5.4755    7.2629    8.0681 C.3     1  UNL1        0.0000
      6 C           4.2886    6.4505    8.5852 C.2     1  UNL1        0.0000
      7 C           3.6988    6.8580    9.7245 C.2     1  UNL1        0.0000
      8 C          10.3326    9.9610   10.3264 C.3     1  UNL1        0.0000
      9 C           9.4948   12.2940    8.4239 C.3     1  UNL1        0.0000
     10 C           8.3367   12.1710   11.3005 C.3     1  UNL1        0.0000
     11 C           3.8988    5.2624    7.8009 C.ar    1  UNL1        0.0000
     12 C           2.5613    4.9299    7.5920 C.ar    1  UNL1        0.0000
     13 C           2.2166    3.7994    6.8758 C.ar    1  UNL1        0.0000
     14 C           3.1990    2.9760    6.3522 C.ar    1  UNL1        0.0000
     15 C           4.5317    3.2974    6.5462 C.ar    1  UNL1        0.0000
     16 C           4.8787    4.4300    7.2581 C.ar    1  UNL1        0.0000
     17 C           2.5760    6.1721   10.3655 C.ar    1  UNL1        0.0000
     18 C           1.2860    6.7197   10.3113 C.ar    1  UNL1        0.0000
     19 C           0.2295    6.1153   10.9632 C.ar    1  UNL1        0.0000
     20 C           0.4286    4.9516   11.6899 C.ar    1  UNL1        0.0000
     21 C           1.6926    4.3869   11.7384 C.ar    1  UNL1        0.0000
     22 C           2.7529    4.9832   11.0832 C.ar    1  UNL1        0.0000
     23 H           6.4203    6.8176    8.4122 H       1  UNL1        0.0000
     24 H           5.4833    7.2383    6.9696 H       1  UNL1        0.0000
     25 H           4.6534    9.2812    7.9678 H       1  UNL1        0.0000
     26 H          10.6900    9.3830    9.4796 H       1  UNL1        0.0000
     27 H          10.0233    9.2570   11.0933 H       1  UNL1        0.0000
     28 H          11.1756   10.5233   10.7178 H       1  UNL1        0.0000
     29 H           8.7021   12.9706    8.1196 H       1  UNL1        0.0000
     30 H           9.8069   11.7402    7.5439 H       1  UNL1        0.0000
     31 H          10.3369   12.8989    8.7481 H       1  UNL1        0.0000
     32 H           8.1253   11.5602   12.1740 H       1  UNL1        0.0000
     33 H           7.4344   12.7271   11.0614 H       1  UNL1        0.0000
     34 H           9.0969   12.8921   11.5876 H       1  UNL1        0.0000
     35 H           1.7877    5.5715    7.9838 H       1  UNL1        0.0000
     36 H           1.1739    3.5606    6.7226 H       1  UNL1        0.0000
     37 H           2.9286    2.0916    5.7941 H       1  UNL1        0.0000
     38 H           5.3055    2.6612    6.1403 H       1  UNL1        0.0000
     39 H           5.9231    4.6618    7.4096 H       1  UNL1        0.0000
     40 H           1.1215    7.6152    9.7230 H       1  UNL1        0.0000
     41 H          -0.7585    6.5501   10.9025 H       1  UNL1        0.0000
     42 H          -0.3979    4.4826   12.2026 H       1  UNL1        0.0000
     43 H           1.8503    3.4679   12.2852 H       1  UNL1        0.0000
     44 H           3.7304    4.5202   11.1057 H       1  UNL1        0.0000
@<TRIPOS>BOND
     1    37    14    1
     2    38    15    1
     3    14    15   ar
     4    14    13   ar
     5    15    16   ar
     6    36    13    1
     7    13    12   ar
     8    24     5    1
     9    16    39    1
    10    16    11   ar
    11    30     9    1
    12    12    11   ar
    13    12    35    1
    14    11     6    1
    15    25     4    1
    16     5    23    1
    17     5     6    1
    18     5     4    1
    19    29     9    1
    20     9    31    1
    21     9     1    1
    22     6     7    2
    23     4     3    1
    24     3     2    3
    25     2     1    1
    26    26     8    1
    27    40    18    1
    28     7    17    1
    29     1     8    1
    30     1    10    1
    31    18    17   ar
    32    18    19   ar
    33     8    28    1
    34     8    27    1
    35    17    22   ar
    36    41    19    1
    37    19    20   ar
    38    33    10    1
    39    22    44    1
    40    22    21   ar
    41    10    34    1
    42    10    32    1
    43    20    21   ar
    44    20    42    1
    45    21    43    1
