@<TRIPOS>MOLECULE
1,4,6
 8 7 0 0 0
SMALL
GASTEIGER

@<TRIPOS>ATOM
      1 C           4.0264    2.6624    8.0216 C.3     1  UNL1       -0.0497
      2 H           4.9159    3.2643    8.2447 H       1  UNL1        0.0268
      3 H           3.1959    2.8523    8.6968 H       1  UNL1        0.0268
      4 C           4.2574    1.3198    7.6647 C.3     1  UNL1       -0.0382
      5 H           3.5447    0.5418    7.9329 H       1  UNL1        0.0303
      6 C           5.3226    1.0344    6.8020 C.3     1  UNL1       -0.0497
      7 H           5.5582   -0.0093    6.6187 H       1  UNL1        0.0268
      8 H           6.2181    1.6781    6.8629 H       1  UNL1        0.0268
@<TRIPOS>BOND
     1     7     6    1
     2     6     8    1
     3     6     4    1
     4     4     5    1
     5     4     1    1
     6     1     2    1
     7     1     3    1
