@<TRIPOS>MOLECULE
6,7,10
 56 57 0 0 0
SMALL
GASTEIGER

@<TRIPOS>ATOM
      1 CL          3.9343   10.9816    7.2096 Cl      1  UNL1        0.0000
      2 SI          1.8120   11.7135   10.0954 Si      1  UNL1        0.0000
      3 O           1.4006   11.2662    8.5472 O.3     1  UNL1        0.0000
      4 O           4.6175    8.2382    6.9821 O.3     1  UNL1        0.0000
      5 O           3.2609    7.6494    8.6754 O.2     1  UNL1        0.0000
      6 C           2.8336    9.6578    7.4539 C.3     1  UNL1        0.0000
      7 C           1.5951   10.0076    8.0976 C.3     1  UNL1        0.0000
      8 C           5.9329    6.6874    5.7568 C.ar    1  UNL1        0.0000
      9 C          -0.7634    9.1486    8.5625 C.ar    1  UNL1        0.0000
     10 C           0.6178    8.9729    8.1261 C.3     1  UNL1        0.0000
     11 H           0.9997    7.9618    8.2906 H       1  UNL1        0.0000
     12 C          -1.5130    8.0015    8.8525 C.ar    1  UNL1        0.0000
     13 H          -1.0436    7.0340    8.7535 H       1  UNL1        0.0000
     14 C           5.3507    7.0140    7.1025 C.3     1  UNL1        0.0000
     15 H           4.6574    6.2347    7.4394 H       1  UNL1        0.0000
     16 H           6.1322    7.1482    7.8583 H       1  UNL1        0.0000
     17 C           3.5645    8.3937    7.7728 C.2     1  UNL1        0.0000
     18 C           5.0787    6.4505    4.6860 C.ar    1  UNL1        0.0000
     19 H           4.0108    6.4884    4.8438 H       1  UNL1        0.0000
     20 C          -1.3959   10.3903    8.6843 C.ar    1  UNL1        0.0000
     21 H          -0.8488   11.2929    8.4693 H       1  UNL1        0.0000
     22 C          -2.7129   10.4764    9.0987 C.ar    1  UNL1        0.0000
     23 H          -3.1788   11.4475    9.1944 H       1  UNL1        0.0000
     24 C           7.3055    6.6436    5.5601 C.ar    1  UNL1        0.0000
     25 H           7.9737    6.8301    6.3886 H       1  UNL1        0.0000
     26 C          -2.8291    8.0924    9.2571 C.ar    1  UNL1        0.0000
     27 H          -3.3866    7.1937    9.4765 H       1  UNL1        0.0000
     28 C          -3.4367    9.3318    9.3868 C.ar    1  UNL1        0.0000
     29 H          -4.4649    9.4044    9.7086 H       1  UNL1        0.0000
     30 C           6.9688    6.1251    3.2427 C.ar    1  UNL1        0.0000
     31 H           7.3728    5.9053    2.2650 H       1  UNL1        0.0000
     32 C           1.7375   13.6285    9.9586 C.3     1  UNL1        0.0000
     33 C           5.5978    6.1747    3.4343 C.ar    1  UNL1        0.0000
     34 H           4.9300    5.9901    2.6057 H       1  UNL1        0.0000
     35 C           7.8215    6.3573    4.3077 C.ar    1  UNL1        0.0000
     36 H           8.8915    6.3202    4.1628 H       1  UNL1        0.0000
     37 C           0.5329   11.0074   11.3228 C.3     1  UNL1        0.0000
     38 H          -0.4674   11.3958   11.1549 H       1  UNL1        0.0000
     39 H           0.8066   11.2362   12.3474 H       1  UNL1        0.0000
     40 H           0.4751    9.9256   11.2332 H       1  UNL1        0.0000
     41 C           3.5177   11.0247   10.5824 C.3     1  UNL1        0.0000
     42 H           3.5360    9.9474   10.4325 H       1  UNL1        0.0000
     43 H           3.7386   11.2107   11.6284 H       1  UNL1        0.0000
     44 H           4.3239   11.4510    9.9931 H       1  UNL1        0.0000
     45 C           2.8926   14.1617    9.1063 C.3     1  UNL1        0.0000
     46 H           3.8491   13.9453    9.5748 H       1  UNL1        0.0000
     47 H           2.8087   15.2417    8.9874 H       1  UNL1        0.0000
     48 H           2.8877   13.7047    8.1200 H       1  UNL1        0.0000
     49 C           1.8425   14.2305   11.3587 C.3     1  UNL1        0.0000
     50 H           1.0117   13.9079   11.9805 H       1  UNL1        0.0000
     51 H           1.8302   15.3186   11.3087 H       1  UNL1        0.0000
     52 H           2.7666   13.9222   11.8403 H       1  UNL1        0.0000
     53 C           0.4182   14.0793    9.3261 C.3     1  UNL1        0.0000
     54 H           0.3306   13.6860    8.3162 H       1  UNL1        0.0000
     55 H           0.3745   15.1670    9.2738 H       1  UNL1        0.0000
     56 H          -0.4317   13.7327    9.9097 H       1  UNL1        0.0000
@<TRIPOS>BOND
     1    31    30    1
     2    34    33    1
     3    30    33   ar
     4    30    35   ar
     5    33    18   ar
     6    36    35    1
     7    35    24   ar
     8    18    19    1
     9    18     8   ar
    10    24     8   ar
    11    24    25    1
    12     8    14    1
    13     4    14    1
    14     4    17    1
    15    14    15    1
    16    14    16    1
    17     1     6    1
    18     6    17    1
    19     6     7    1
    20    17     5    2
    21     7    10    1
    22     7     3    1
    23    48    45    1
    24    10    11    1
    25    10     9    1
    26    54    53    1
    27    21    20    1
    28     3     2    1
    29     9    20   ar
    30     9    12   ar
    31    20    22   ar
    32    13    12    1
    33    12    26   ar
    34    47    45    1
    35    22    23    1
    36    22    28   ar
    37    45    46    1
    38    45    32    1
    39    26    28   ar
    40    26    27    1
    41    55    53    1
    42    53    56    1
    43    53    32    1
    44    28    29    1
    45    32     2    1
    46    32    49    1
    47    44    41    1
    48     2    41    1
    49     2    37    1
    50    42    41    1
    51    41    43    1
    52    38    37    1
    53    40    37    1
    54    51    49    1
    55    37    39    1
    56    49    52    1
    57    49    50    1
