@<TRIPOS>MOLECULE
1,7,9
 22 22 0 0 0
SMALL
GASTEIGER

@<TRIPOS>ATOM
      1 C           6.8150   15.5892    5.3004 C.2     1  UNL1        0.0000
      2 H           6.4771   15.4193    6.3095 H       1  UNL1        0.0000
      3 C           7.6922   14.8227    4.5972 C.2     1  UNL1        0.0000
      4 H           8.1505   13.9076    4.9271 H       1  UNL1        0.0000
      5 C           7.9374   15.4404    3.3347 C.2     1  UNL1        0.0000
      6 H           8.6009   15.0501    2.5844 H       1  UNL1        0.0000
      7 C           7.2131   16.5893    3.2580 C.2     1  UNL1        0.0000
      8 H           7.2366   17.3102    2.4567 H       1  UNL1        0.0000
      9 C           6.4817   16.7867    4.5190 C.3     1  UNL1        0.0000
     10 SI          7.1282   18.3813    5.4584 Si      1  UNL1        0.0000
     11 C           6.6010   18.2091    7.2811 C.3     1  UNL1        0.0000
     12 H           7.2463   17.5195    7.8169 H       1  UNL1        0.0000
     13 H           5.5767   17.8645    7.3941 H       1  UNL1        0.0000
     14 H           6.6774   19.1696    7.7801 H       1  UNL1        0.0000
     15 C           9.0170   18.4068    5.2580 C.3     1  UNL1        0.0000
     16 H           9.4588   17.4511    5.5247 H       1  UNL1        0.0000
     17 H           9.4571   19.1622    5.9005 H       1  UNL1        0.0000
     18 H           9.3142   18.6311    4.2381 H       1  UNL1        0.0000
     19 C           6.2678   19.8559    4.6086 C.3     1  UNL1        0.0000
     20 H           5.2013   19.8837    4.8230 H       1  UNL1        0.0000
     21 H           6.3959   19.8424    3.5297 H       1  UNL1        0.0000
     22 H           6.6938   20.7867    4.9683 H       1  UNL1        0.0000
@<TRIPOS>BOND
     1     8     7    1
     2     6     5    1
     3     7     5    2
     4     7     9    1
     5     5     3    1
     6    21    19    1
     7    18    15    1
     8     9     1    1
     9     9    10    1
    10     3     4    1
    11     3     1    2
    12    19    20    1
    13    19    22    1
    14    19    10    1
    15    15    10    1
    16    15    16    1
    17    15    17    1
    18     1     2    1
    19    10    11    1
    20    11    13    1
    21    11    14    1
    22    11    12    1
