@<TRIPOS>MOLECULE
2,3,6
 22 22 0 0 0
SMALL
GASTEIGER

@<TRIPOS>ATOM
      1 SI          7.1824    5.0263    8.1245 Si      1  UNL1        0.0000
      2 C           5.4892    5.7732    8.6255 C.3     1  UNL1        0.0000
      3 C           5.5150    6.8064    9.6586 C.2     1  UNL1        0.0000
      4 C           4.8176    7.9035    9.2235 C.2     1  UNL1        0.0000
      5 C           4.3167    7.6385    7.9238 C.2     1  UNL1        0.0000
      6 C           4.7042    6.3757    7.5521 C.2     1  UNL1        0.0000
      7 C           7.5456    3.5105    9.2299 C.3     1  UNL1        0.0000
      8 C           8.5161    6.3663    8.4052 C.3     1  UNL1        0.0000
      9 C           7.1836    4.5268    6.2792 C.3     1  UNL1        0.0000
     10 H           6.0908    6.7308   10.5679 H       1  UNL1        0.0000
     11 H           4.6742    8.8242    9.7646 H       1  UNL1        0.0000
     12 H           3.7357    8.3281    7.3327 H       1  UNL1        0.0000
     13 H           4.5478    5.9195    6.5839 H       1  UNL1        0.0000
     14 H           6.8296    2.7138    9.0315 H       1  UNL1        0.0000
     15 H           7.4722    3.7771   10.2823 H       1  UNL1        0.0000
     16 H           8.5421    3.1187    9.0535 H       1  UNL1        0.0000
     17 H           8.6396    6.5875    9.4601 H       1  UNL1        0.0000
     18 H           8.2562    7.2931    7.9040 H       1  UNL1        0.0000
     19 H           9.4765    6.0398    8.0213 H       1  UNL1        0.0000
     20 H           7.0786    5.3931    5.6333 H       1  UNL1        0.0000
     21 H           6.3757    3.8379    6.0530 H       1  UNL1        0.0000
     22 H           8.1168    4.0366    6.0207 H       1  UNL1        0.0000
@<TRIPOS>BOND
     1    20     9    1
     2    22     9    1
     3    21     9    1
     4     9     1    1
     5    13     6    1
     6    12     5    1
     7     6     5    2
     8     6     2    1
     9    18     8    1
    10     5     4    1
    11    19     8    1
    12     1     8    1
    13     1     2    1
    14     1     7    1
    15     8    17    1
    16     2     3    1
    17    14     7    1
    18    16     7    1
    19     4     3    2
    20     4    11    1
    21     7    15    1
    22     3    10    1
