@<TRIPOS>MOLECULE
3,4,5
 41 42 0 0 0
SMALL
GASTEIGER

@<TRIPOS>ATOM
      1 SI          5.6646    5.6560    4.6635 Si      1  UNL1        0.0000
      2 O           5.3262    4.2710    3.8336 O.3     1  UNL1        0.0000
      3 C           6.8188    6.5945    3.5196 C.3     1  UNL1        0.0000
      4 C           6.9210    6.2287    2.1609 C.3     1  UNL1        0.0000
      5 C           7.6285    7.0756    1.2405 C.3     1  UNL1        0.0000
      6 C           7.6500    6.5778   -0.1897 C.3     1  UNL1        0.0000
      7 C           7.3831    8.5751    1.3019 C.3     1  UNL1        0.0000
      8 C           4.2886    3.3667    4.0859 C.3     1  UNL1        0.0000
      9 C           4.0374    6.6150    4.8893 C.ar    1  UNL1        0.0000
     10 C           3.1720    6.7745    3.8093 C.ar    1  UNL1        0.0000
     11 C           1.9664    7.4377    3.9475 C.ar    1  UNL1        0.0000
     12 C           1.6033    7.9616    5.1769 C.ar    1  UNL1        0.0000
     13 C           2.4533    7.8189    6.2606 C.ar    1  UNL1        0.0000
     14 C           3.6571    7.1526    6.1151 C.ar    1  UNL1        0.0000
     15 C           6.3837    5.3248    6.3869 C.ar    1  UNL1        0.0000
     16 C           5.7087    4.5149    7.2976 C.ar    1  UNL1        0.0000
     17 C           6.2239    4.2656    8.5569 C.ar    1  UNL1        0.0000
     18 C           7.4286    4.8336    8.9362 C.ar    1  UNL1        0.0000
     19 C           8.1083    5.6525    8.0499 C.ar    1  UNL1        0.0000
     20 C           7.5890    5.8932    6.7902 C.ar    1  UNL1        0.0000
     21 H           6.8055    7.6577    3.7416 H       1  UNL1        0.0000
     22 H           6.4016    5.3479    1.7927 H       1  UNL1        0.0000
     23 H           8.4701    7.0275   -0.7480 H       1  UNL1        0.0000
     24 H           6.7196    6.8507   -0.6920 H       1  UNL1        0.0000
     25 H           7.7568    5.4955   -0.2283 H       1  UNL1        0.0000
     26 H           7.5640    8.9884    2.2929 H       1  UNL1        0.0000
     27 H           6.3467    8.7805    1.0245 H       1  UNL1        0.0000
     28 H           8.0331    9.0939    0.5987 H       1  UNL1        0.0000
     29 H           4.5654    2.6798    4.8900 H       1  UNL1        0.0000
     30 H           4.1093    2.7935    3.1743 H       1  UNL1        0.0000
     31 H           3.3723    3.8901    4.3668 H       1  UNL1        0.0000
     32 H           3.4527    6.3694    2.8469 H       1  UNL1        0.0000
     33 H           1.3085    7.5479    3.0970 H       1  UNL1        0.0000
     34 H           0.6621    8.4801    5.2892 H       1  UNL1        0.0000
     35 H           2.1761    8.2278    7.2217 H       1  UNL1        0.0000
     36 H           4.3148    7.0440    6.9655 H       1  UNL1        0.0000
     37 H           4.7608    4.0767    7.0163 H       1  UNL1        0.0000
     38 H           5.6847    3.6305    9.2455 H       1  UNL1        0.0000
     39 H           7.8333    4.6415    9.9194 H       1  UNL1        0.0000
     40 H           9.0450    6.1059    8.3417 H       1  UNL1        0.0000
     41 H           8.1263    6.5287    6.1020 H       1  UNL1        0.0000
@<TRIPOS>BOND
     1    23     6    1
     2    24     6    1
     3    25     6    1
     4     6     5    1
     5    28     7    1
     6    27     7    1
     7     5     7    1
     8     5     4    1
     9     7    26    1
    10    22     4    1
    11     4     3    1
    12    32    10    1
    13    33    11    1
    14    30     8    1
    15     3    21    1
    16     3     1    1
    17    10    11   ar
    18    10     9   ar
    19     2     8    1
    20     2     1    1
    21    11    12   ar
    22     8    31    1
    23     8    29    1
    24     1     9    1
    25     1    15    1
    26     9    14   ar
    27    12    34    1
    28    12    13   ar
    29    41    20    1
    30    14    13   ar
    31    14    36    1
    32    13    35    1
    33    15    20   ar
    34    15    16   ar
    35    20    19   ar
    36    37    16    1
    37    16    17   ar
    38    19    40    1
    39    19    18   ar
    40    17    18   ar
    41    17    38    1
    42    18    39    1
