@<TRIPOS>MOLECULE
1,2,3
 8 7 0 0 0
SMALL
GASTEIGER

@<TRIPOS>ATOM
      1 C           5.7848    1.6817   15.4626 C.3     1  UNL1       -0.0497
      2 C           6.6059    2.8153   15.3347 C.3     1  UNL1       -0.0382
      3 C           6.8224    3.3714   14.0627 C.3     1  UNL1       -0.0497
      4 H           5.5725    1.3082   16.4558 H       1  UNL1        0.0268
      5 H           5.8705    0.9036   14.7130 H       1  UNL1        0.0268
      6 H           6.9365    3.3506   16.2234 H       1  UNL1        0.0303
      7 H           7.4215    4.2715   13.9876 H       1  UNL1        0.0268
      8 H           6.9552    2.7082   13.2145 H       1  UNL1        0.0268
@<TRIPOS>BOND
     1     8     3    1
     2     7     3    1
     3     3     2    1
     4     5     1    1
     5     2     1    1
     6     2     6    1
     7     1     4    1
