@<TRIPOS>MOLECULE
2,3,9
 22 22 0 0 0
SMALL
GASTEIGER

@<TRIPOS>ATOM
      1 SI          1.4084    5.7272    2.4870 Si      1  UNL1        0.0000
      2 C           2.1591    5.2135    0.8043 C.3     1  UNL1        0.0000
      3 C           1.2479    4.5313   -0.1198 C.2     1  UNL1        0.0000
      4 H           0.6430    3.6860    0.1617 H       1  UNL1        0.0000
      5 C           1.2526    5.1730   -1.3173 C.2     1  UNL1        0.0000
      6 H           0.6859    4.9069   -2.1930 H       1  UNL1        0.0000
      7 C           2.1489    6.2831   -1.2401 C.2     1  UNL1        0.0000
      8 H           2.3491    6.9649   -2.0490 H       1  UNL1        0.0000
      9 C           2.6913    6.3189    0.0049 C.2     1  UNL1        0.0000
     10 H           3.3691    7.0667    0.3891 H       1  UNL1        0.0000
     11 C           0.4125    4.2910    3.2476 C.3     1  UNL1        0.0000
     12 H           0.1095    4.5282    4.2619 H       1  UNL1        0.0000
     13 H           1.0029    3.3817    3.2777 H       1  UNL1        0.0000
     14 H          -0.4889    4.0876    2.6791 H       1  UNL1        0.0000
     15 C           2.8251    6.2807    3.6426 C.3     1  UNL1        0.0000
     16 H           2.4439    6.5912    4.6096 H       1  UNL1        0.0000
     17 H           3.3772    7.1190    3.2277 H       1  UNL1        0.0000
     18 H           3.5270    5.4663    3.8013 H       1  UNL1        0.0000
     19 C           0.2389    7.2017    2.1418 C.3     1  UNL1        0.0000
     20 H          -0.2861    7.5005    3.0427 H       1  UNL1        0.0000
     21 H          -0.5054    6.9438    1.3951 H       1  UNL1        0.0000
     22 H           0.7816    8.0663    1.7734 H       1  UNL1        0.0000
@<TRIPOS>BOND
     1     6     5    1
     2     8     7    1
     3     5     7    1
     4     5     3    2
     5     7     9    2
     6     3     4    1
     7     3     2    1
     8     9    10    1
     9     9     2    1
    10     2     1    1
    11    21    19    1
    12    22    19    1
    13    19     1    1
    14    19    20    1
    15     1    11    1
    16     1    15    1
    17    14    11    1
    18    17    15    1
    19    11    13    1
    20    11    12    1
    21    15    18    1
    22    15    16    1
