@<TRIPOS>MOLECULE
2,38,39
 44 45 0 0 0
SMALL
GASTEIGER

@<TRIPOS>ATOM
      1 N           0.5072    8.7136    8.3755 N.3     1  UNL1        0.0000
      2 C           1.5914    8.9872    7.7244 C.3     1  UNL1        0.0000
      3 SI          3.3307    9.1417    8.4901 Si      1  UNL1        0.0000
      4 C           0.4036    8.4179    9.7929 C.3     1  UNL1        0.0000
      5 H          -0.2208    7.5350    9.9391 H       1  UNL1        0.0000
      6 H          -0.0608    9.2565   10.3168 H       1  UNL1        0.0000
      7 H           1.3847    8.2334   10.2205 H       1  UNL1        0.0000
      8 C          -0.7883    8.6894    7.7214 C.3     1  UNL1        0.0000
      9 H          -1.4940    9.3103    8.2757 H       1  UNL1        0.0000
     10 H          -1.1735    7.6683    7.6883 H       1  UNL1        0.0000
     11 H          -0.6885    9.0665    6.7047 H       1  UNL1        0.0000
     12 C           4.0182    8.2078    9.9995 C.ar    1  UNL1        0.0000
     13 C           3.6957    8.6337   11.2862 C.ar    1  UNL1        0.0000
     14 H           3.0516    9.4933   11.4142 H       1  UNL1        0.0000
     15 C           4.2041    7.9921   12.4001 C.ar    1  UNL1        0.0000
     16 H           3.9419    8.3394   13.3890 H       1  UNL1        0.0000
     17 C           5.0545    6.9092   12.2477 C.ar    1  UNL1        0.0000
     18 H           5.4531    6.4062   13.1164 H       1  UNL1        0.0000
     19 C           5.4004    6.4836   10.9766 C.ar    1  UNL1        0.0000
     20 H           6.0752    5.6492   10.8511 H       1  UNL1        0.0000
     21 C           4.8865    7.1291    9.8661 C.ar    1  UNL1        0.0000
     22 H           5.1735    6.8024    8.8781 H       1  UNL1        0.0000
     23 C           3.5290   10.9758    8.9346 C.ar    1  UNL1        0.0000
     24 C           2.4838   11.8811    8.7857 C.ar    1  UNL1        0.0000
     25 H           1.5343   11.5399    8.3942 H       1  UNL1        0.0000
     26 C           2.6462   13.2148    9.1135 C.ar    1  UNL1        0.0000
     27 H           1.8252   13.9051    8.9841 H       1  UNL1        0.0000
     28 C           3.8617   13.6660    9.5991 C.ar    1  UNL1        0.0000
     29 H           3.9925   14.7086    9.8499 H       1  UNL1        0.0000
     30 C           4.9101   12.7757    9.7602 C.ar    1  UNL1        0.0000
     31 H           5.8611   13.1220   10.1391 H       1  UNL1        0.0000
     32 C           4.7405   11.4430    9.4328 C.ar    1  UNL1        0.0000
     33 H           5.5607   10.7510    9.5654 H       1  UNL1        0.0000
     34 C           5.3949    9.4982    6.4055 C.3     1  UNL1        0.0000
     35 H           5.3049   10.5463    6.6829 H       1  UNL1        0.0000
     36 H           5.5489    9.4296    5.3278 H       1  UNL1        0.0000
     37 H           6.2905    9.1086    6.8971 H       1  UNL1        0.0000
     38 C           4.2111    8.6838    6.8564 C.3     1  UNL1        0.0000
     39 C           3.8906    7.5380    6.1880 C.3     1  UNL1        0.0000
     40 H           4.4787    7.2905    5.3002 H       1  UNL1        0.0000
     41 C           3.2477    6.3238    6.8079 C.3     1  UNL1        0.0000
     42 H           2.6998    5.7379    6.0724 H       1  UNL1        0.0000
     43 H           2.5798    6.5766    7.6306 H       1  UNL1        0.0000
     44 H           4.0352    5.6752    7.2016 H       1  UNL1        0.0000
@<TRIPOS>BOND
     1    40    39    1
     2    36    34    1
     3    42    41    1
     4    39    41    1
     5    39    38    1
     6    34    35    1
     7    34    38    1
     8    34    37    1
     9    11     8    1
    10    41    44    1
    11    41    43    1
    12    38     3    1
    13    10     8    1
    14     8     9    1
    15     8     1    1
    16     2     1    1
    17     2     3    1
    18     1     4    1
    19    25    24    1
    20     3    23    1
    21     3    12    1
    22    24    23   ar
    23    24    26   ar
    24    22    21    1
    25    23    32   ar
    26    27    26    1
    27    26    28   ar
    28    32    33    1
    29    32    30   ar
    30    28    30   ar
    31    28    29    1
    32    30    31    1
    33     4     5    1
    34     4     7    1
    35     4     6    1
    36    21    12   ar
    37    21    19   ar
    38    12    13   ar
    39    20    19    1
    40    19    17   ar
    41    13    14    1
    42    13    15   ar
    43    17    15   ar
    44    17    18    1
    45    15    16    1
