@<TRIPOS>MOLECULE
1,3,6
 8 7 0 0 0
SMALL
GASTEIGER

@<TRIPOS>ATOM
      1 C          -1.6256    2.6759    0.6529 C.3     1  UNL1       -0.0382
      2 H          -2.4479    2.6759    1.3712 H       1  UNL1        0.0303
      3 C          -1.0657    1.4369    0.2914 C.3     1  UNL1       -0.0497
      4 H          -0.5858    1.3446   -0.6802 H       1  UNL1        0.0268
      5 H          -1.5774    0.5369    0.6092 H       1  UNL1        0.0268
      6 C          -1.0652    3.9149    0.2920 C.3     1  UNL1       -0.0497
      7 H          -0.5855    4.0075   -0.6797 H       1  UNL1        0.0268
      8 H          -1.5766    4.8150    0.6101 H       1  UNL1        0.0268
@<TRIPOS>BOND
     1     4     3    1
     2     7     6    1
     3     3     5    1
     4     3     1    1
     5     6     8    1
     6     6     1    1
     7     1     2    1
