@<TRIPOS>MOLECULE
1,17,18
 31 30 0 0 0
SMALL
GASTEIGER

@<TRIPOS>ATOM
      1 C           3.2601   -0.1451   17.0246 C.3     1  UNL1        0.0000
      2 C           3.5324   -0.7077   18.2047 C.3     1  UNL1        0.0000
      3 H           3.8146   -0.0534   19.0240 H       1  UNL1        0.0000
      4 SI          3.4825   -2.5522   18.5883 Si      1  UNL1        0.0000
      5 C           2.9310   -3.5872   17.0822 C.3     1  UNL1        0.0000
      6 H           3.6223   -3.4862   16.2506 H       1  UNL1        0.0000
      7 H           1.9541   -3.2788   16.7220 H       1  UNL1        0.0000
      8 H           2.8713   -4.6428   17.3337 H       1  UNL1        0.0000
      9 C           5.2302   -3.1075   19.1277 C.3     1  UNL1        0.0000
     10 H           5.9511   -3.0036   18.3216 H       1  UNL1        0.0000
     11 H           5.2368   -4.1460   19.4451 H       1  UNL1        0.0000
     12 H           5.5877   -2.5066   19.9587 H       1  UNL1        0.0000
     13 C           2.2559   -2.8415   20.0242 C.3     1  UNL1        0.0000
     14 H           2.5501   -2.2793   20.9053 H       1  UNL1        0.0000
     15 H           2.2128   -3.8900   20.3033 H       1  UNL1        0.0000
     16 H           1.2494   -2.5282   19.7606 H       1  UNL1        0.0000
     17 C           2.8816   -0.7474   15.8294 C.1     1  UNL1        0.0000
     18 C           2.5407   -0.8112   14.6453 C.1     1  UNL1        0.0000
     19 SI          1.9571   -1.4685   13.0196 Si      1  UNL1        0.0000
     20 C           1.3527   -3.2570   13.3129 C.3     1  UNL1        0.0000
     21 H           0.5200   -3.2764   14.0102 H       1  UNL1        0.0000
     22 H           2.1403   -3.8819   13.7227 H       1  UNL1        0.0000
     23 H           1.0176   -3.7137   12.3864 H       1  UNL1        0.0000
     24 C           0.5232   -0.4055   12.3581 C.3     1  UNL1        0.0000
     25 H           0.7776    0.6489   12.4080 H       1  UNL1        0.0000
     26 H          -0.3851   -0.5599   12.9324 H       1  UNL1        0.0000
     27 H           0.3033   -0.6434   11.3211 H       1  UNL1        0.0000
     28 C           3.3973   -1.4435   11.7746 C.3     1  UNL1        0.0000
     29 H           3.8398   -0.4530   11.7262 H       1  UNL1        0.0000
     30 H           3.0598   -1.7079   10.7763 H       1  UNL1        0.0000
     31 H           4.1802   -2.1418   12.0539 H       1  UNL1        0.0000
@<TRIPOS>BOND
     1    30    28    1
     2    27    24    1
     3    29    28    1
     4    28    31    1
     5    28    19    1
     6    24    25    1
     7    24    26    1
     8    24    19    1
     9    23    20    1
    10    19    20    1
    11    19    18    1
    12    20    22    1
    13    20    21    1
    14    18    17    3
    15    17     1    1
    16     6     5    1
    17     7     5    1
    18     1     2    1
    19     5     8    1
    20     5     4    1
    21     2     4    1
    22     2     3    1
    23    10     9    1
    24     4     9    1
    25     4    13    1
    26     9    11    1
    27     9    12    1
    28    16    13    1
    29    13    15    1
    30    13    14    1
