@<TRIPOS>MOLECULE
1,6,15
 25 25 0 0 0
SMALL
GASTEIGER

@<TRIPOS>ATOM
      1 C           6.9499    3.3666   13.0406 C.2     1  UNL1       -0.0584
      2 C           5.5945    2.7294   12.9275 C.3     1  UNL1       -0.0424
      3 H           4.8503    3.3394   13.4462 H       1  UNL1        0.0275
      4 H           5.5950    1.7414   13.3799 H       1  UNL1        0.0275
      5 H           5.2917    2.6298   11.8843 H       1  UNL1        0.0275
      6 C           7.3899    4.4923   12.2281 C.3     1  UNL1        0.0231
      7 C           6.3982    5.4450   11.5750 C.3     1  UNL1       -0.0510
      8 H           5.8846    6.0152   12.3556 H       1  UNL1        0.0242
      9 H           5.6407    4.9089   10.9992 H       1  UNL1        0.0242
     10 H           6.9003    6.1516   10.9155 H       1  UNL1        0.0242
     11 C           9.3252    6.2373   12.4849 C.3     1  UNL1       -0.0424
     12 H           8.7605    7.0865   12.8772 H       1  UNL1        0.0275
     13 H           9.4180    6.3500   11.4054 H       1  UNL1        0.0275
     14 H          10.3216    6.2709   12.9188 H       1  UNL1        0.0275
     15 C           8.6331    4.9510   12.8400 C.2     1  UNL1       -0.0584
     16 C           8.9304    4.1143   13.9108 C.2     1  UNL1       -0.0477
     17 C          10.0982    4.2808   14.8373 C.3     1  UNL1       -0.0395
     18 H           9.8726    5.0277   15.6006 H       1  UNL1        0.0278
     19 H          10.9810    4.6171   14.2953 H       1  UNL1        0.0278
     20 H          10.3420    3.3510   15.3466 H       1  UNL1        0.0278
     21 C           7.8954    3.1410   14.0342 C.2     1  UNL1       -0.0477
     22 C           7.7914    2.0813   15.0900 C.3     1  UNL1       -0.0395
     23 H           7.0010    2.3280   15.8002 H       1  UNL1        0.0278
     24 H           8.7196    1.9852   15.6488 H       1  UNL1        0.0278
     25 H           7.5493    1.1144   14.6474 H       1  UNL1        0.0278
@<TRIPOS>BOND
     1    10     7    1
     2     9     7    1
     3    13    11    1
     4     7     6    1
     5     7     8    1
     6     5     2    1
     7     6    15    1
     8     6     1    1
     9    11    15    1
    10    11    12    1
    11    11    14    1
    12    15    16    2
    13     2     1    1
    14     2     4    1
    15     2     3    1
    16     1    21    2
    17    16    21    1
    18    16    17    1
    19    21    22    1
    20    19    17    1
    21    25    22    1
    22    17    20    1
    23    17    18    1
    24    22    24    1
    25    22    23    1
