@<TRIPOS>MOLECULE
1,4,5
 10 10 0 0 0
SMALL
GASTEIGER

@<TRIPOS>ATOM
      1 C          -4.7852    6.9718   12.4866 C.2     1  UNL1       -0.0763
      2 C          -5.8345    7.8483   12.1527 C.2     1  UNL1       -0.0654
      3 C          -6.7832    7.8194   13.1845 C.2     1  UNL1       -0.0654
      4 C          -6.3589    6.8895   14.1450 C.2     1  UNL1       -0.0763
      5 C          -5.1204    6.3514   13.7253 C.3     1  UNL1        0.0054
      6 H          -3.9719    6.6828   11.8315 H       1  UNL1        0.0578
      7 H          -5.9343    8.3857   11.2209 H       1  UNL1        0.0615
      8 H          -7.7264    8.3440   13.1932 H       1  UNL1        0.0615
      9 H          -6.9306    6.5626   15.0025 H       1  UNL1        0.0578
     10 H          -4.6138    5.5088   14.1755 H       1  UNL1        0.0394
@<TRIPOS>BOND
     1     7     2    1
     2     6     1    1
     3     2     1    2
     4     2     3    1
     5     1     5    1
     6     3     8    1
     7     3     4    2
     8     5     4    1
     9     5    10    1
    10     4     9    1
