@<TRIPOS>MOLECULE
18,19,20
 47 49 0 0 0
SMALL
GASTEIGER

@<TRIPOS>ATOM
      1 F          11.0805    4.7999    4.5898 F       1  UNL1        0.0000
      2 F          12.6761    3.7527    2.7485 F       1  UNL1        0.0000
      3 F          12.5857    1.0637    2.1881 F       1  UNL1        0.0000
      4 F          10.8295   -0.5174    3.5709 F       1  UNL1        0.0000
      5 F           9.2211    0.5138    5.4010 F       1  UNL1        0.0000
      6 F          10.1197    6.0811    7.3663 F       1  UNL1        0.0000
      7 F          11.8238    6.2996    9.3618 F       1  UNL1        0.0000
      8 F          12.8497    4.0751   10.5992 F       1  UNL1        0.0000
      9 F          12.0627    1.5944    9.7317 F       1  UNL1        0.0000
     10 F          10.3135    1.3588    7.7291 F       1  UNL1        0.0000
     11 F           7.2787    2.0568    4.3828 F       1  UNL1        0.0000
     12 F           5.0367    0.7453    5.0233 F       1  UNL1        0.0000
     13 F           4.2205    0.5900    7.6333 F       1  UNL1        0.0000
     14 F           5.7148    1.8294    9.5701 F       1  UNL1        0.0000
     15 F           7.9539    3.1139    8.9405 F       1  UNL1        0.0000
     16 B           9.0791    3.4303    6.1991 B       1  UNL1        0.0000
     17 C           3.7822    4.8685    7.6973 C.3     1  UNL1        0.0000
     18 C           5.2344    5.2691    7.7820 C.3     1  UNL1        0.0000
     19 C           6.0745    4.9983    6.6784 C.3     1  UNL1        0.0000
     20 C           7.4204    5.3360    6.6740 C.3     1  UNL1        0.0000
     21 C           8.3499    4.8234    5.6297 C.3     1  UNL1        0.0000
     22 C          10.0189    2.7276    5.0551 C.ar    1  UNL1        0.0000
     23 C          10.9565    3.4763    4.3503 C.ar    1  UNL1        0.0000
     24 C          11.8137    2.9505    3.3928 C.ar    1  UNL1        0.0000
     25 C          11.7731    1.5930    3.1091 C.ar    1  UNL1        0.0000
     26 C          10.8772    0.7981    3.8106 C.ar    1  UNL1        0.0000
     27 C          10.0329    1.3648    4.7620 C.ar    1  UNL1        0.0000
     28 C          10.1127    3.6949    7.4459 C.ar    1  UNL1        0.0000
     29 C          10.5591    4.9248    7.9110 C.ar    1  UNL1        0.0000
     30 C          11.4642    5.0683    8.9581 C.ar    1  UNL1        0.0000
     31 C          11.9818    3.9490    9.5897 C.ar    1  UNL1        0.0000
     32 C          11.5762    2.6956    9.1482 C.ar    1  UNL1        0.0000
     33 C          10.6674    2.5956    8.1021 C.ar    1  UNL1        0.0000
     34 C           7.7997    2.5250    6.6431 C.ar    1  UNL1        0.0000
     35 C           6.9713    1.9410    5.6871 C.ar    1  UNL1        0.0000
     36 C           5.7925    1.2751    5.9951 C.ar    1  UNL1        0.0000
     37 C           5.3708    1.1990    7.3165 C.ar    1  UNL1        0.0000
     38 C           6.1361    1.8156    8.2950 C.ar    1  UNL1        0.0000
     39 C           7.3149    2.4623    7.9433 C.ar    1  UNL1        0.0000
     40 H           3.6816    3.7789    7.7201 H       1  UNL1        0.0000
     41 H           3.2191    5.2594    8.5427 H       1  UNL1        0.0000
     42 H           3.3261    5.2292    6.7740 H       1  UNL1        0.0000
     43 H           5.6768    5.0718    8.7613 H       1  UNL1        0.0000
     44 H           5.6377    4.6007    5.7618 H       1  UNL1        0.0000
     45 H           7.8736    5.5270    7.6513 H       1  UNL1        0.0000
     46 H           7.7985    4.5946    4.7149 H       1  UNL1        0.0000
     47 H           9.1085    5.5590    5.3880 H       1  UNL1        0.0000
@<TRIPOS>BOND
     1     3    25    1
     2     2    24    1
     3    25    24   ar
     4    25    26   ar
     5    24    23   ar
     6     4    26    1
     7    26    27   ar
     8    23     1    1
     9    23    22   ar
    10    11    35    1
    11    46    21    1
    12    27    22   ar
    13    27     5    1
    14    12    36    1
    15    22    16    1
    16    47    21    1
    17    21    16    1
    18    21    20    1
    19    35    36   ar
    20    35    34   ar
    21    44    19    1
    22    36    37   ar
    23    16    34    1
    24    16    28    1
    25    34    39   ar
    26    20    19    1
    27    20    45    1
    28    19    18    1
    29    42    17    1
    30    37    13    1
    31    37    38   ar
    32     6    29    1
    33    28    29   ar
    34    28    33   ar
    35    17    40    1
    36    17    18    1
    37    17    41    1
    38    10    33    1
    39    18    43    1
    40    29    30   ar
    41    39    38   ar
    42    39    15    1
    43    33    32   ar
    44    38    14    1
    45    30     7    1
    46    30    31   ar
    47    32    31   ar
    48    32     9    1
    49    31     8    1
