@<TRIPOS>MOLECULE
2,3,4
 9 8 0 0 0
SMALL
GASTEIGER

@<TRIPOS>ATOM
      1 N           3.4716    6.6045    6.8933 N.1     1  UNL1       -0.1962
      2 C           6.0441    4.0517    5.8149 C.3     1  UNL1       -0.0484
      3 C           6.0604    5.1727    4.9922 C.3     1  UNL1       -0.0202
      4 C           4.8969    5.9896    4.8571 C.3     1  UNL1        0.0651
      5 C           4.1011    6.2963    5.9811 C.1     1  UNL1        0.0675
      6 H           5.4599    4.0544    6.7291 H       1  UNL1        0.0268
      7 H           6.9299    3.4331    5.8709 H       1  UNL1        0.0268
      8 H           6.8911    5.3388    4.3153 H       1  UNL1        0.0317
      9 H           4.9439    6.8172    4.1533 H       1  UNL1        0.0469
@<TRIPOS>BOND
     1     9     4    1
     2     8     3    1
     3     4     3    1
     4     4     5    1
     5     3     2    1
     6     2     7    1
     7     2     6    1
     8     5     1    3
