@<TRIPOS>MOLECULE
1,2,3
 11 10 0 0 0
SMALL
GASTEIGER

@<TRIPOS>ATOM
      1 C           3.3022    3.5698   -2.6456 C.3     1  UNL1       -0.0494
      2 C           2.1136    4.3066   -2.5025 C.3     1  UNL1       -0.0351
      3 C           1.9968    5.2631   -1.4801 C.3     1  UNL1       -0.0379
      4 C           0.7141    6.0343   -1.3197 C.3     1  UNL1       -0.0619
      5 H           4.2368    4.0837   -2.4676 H       1  UNL1        0.0268
      6 H           3.3465    2.8162   -3.4234 H       1  UNL1        0.0268
      7 H           1.2241    4.0113   -3.0564 H       1  UNL1        0.0306
      8 H           2.8872    5.8297   -1.2272 H       1  UNL1        0.0304
      9 H           0.5729    6.3636   -0.2914 H       1  UNL1        0.0233
     10 H           0.7305    6.9247   -1.9532 H       1  UNL1        0.0233
     11 H          -0.1455    5.4293   -1.6004 H       1  UNL1        0.0233
@<TRIPOS>BOND
     1     6     1    1
     2     7     2    1
     3     1     2    1
     4     1     5    1
     5     2     3    1
     6    10     4    1
     7    11     4    1
     8     3     4    1
     9     3     8    1
    10     4     9    1
