@<TRIPOS>MOLECULE
2,3,6
 22 22 0 0 0
SMALL
GASTEIGER

@<TRIPOS>ATOM
      1 SI         -0.0310    4.7804    1.5378 Si      1  UNL1        0.0000
      2 C           0.3336    4.9666    3.4167 C.3     1  UNL1        0.0000
      3 C          -0.4800    6.0032    4.0506 C.2     1  UNL1        0.0000
      4 C           0.3299    6.9538    4.5966 C.2     1  UNL1        0.0000
      5 C           1.6861    6.5860    4.3651 C.2     1  UNL1        0.0000
      6 C           1.7070    5.4127    3.6734 C.2     1  UNL1        0.0000
      7 C          -0.2118    6.5395    0.8038 C.3     1  UNL1        0.0000
      8 C           1.4437    3.9077    0.6903 C.3     1  UNL1        0.0000
      9 C          -1.6442    3.7968    1.2532 C.3     1  UNL1        0.0000
     10 H          -1.5617    6.0216    4.0168 H       1  UNL1        0.0000
     11 H           0.0153    7.8396    5.1242 H       1  UNL1        0.0000
     12 H           2.5396    7.1534    4.6977 H       1  UNL1        0.0000
     13 H           2.5790    4.8931    3.3019 H       1  UNL1        0.0000
     14 H          -0.2390    6.5062   -0.2801 H       1  UNL1        0.0000
     15 H           0.6211    7.1711    1.0959 H       1  UNL1        0.0000
     16 H          -1.1221    7.0234    1.1424 H       1  UNL1        0.0000
     17 H           1.1680    3.5652   -0.3013 H       1  UNL1        0.0000
     18 H           1.7669    3.0429    1.2615 H       1  UNL1        0.0000
     19 H           2.2898    4.5781    0.5807 H       1  UNL1        0.0000
     20 H          -1.8705    3.7161    0.1950 H       1  UNL1        0.0000
     21 H          -2.4944    4.2701    1.7364 H       1  UNL1        0.0000
     22 H          -1.5482    2.7920    1.6594 H       1  UNL1        0.0000
@<TRIPOS>BOND
     1    17     8    1
     2    14     7    1
     3    20     9    1
     4    19     8    1
     5     8    18    1
     6     8     1    1
     7     7    15    1
     8     7    16    1
     9     7     1    1
    10     9     1    1
    11     9    22    1
    12     9    21    1
    13     1     2    1
    14    13     6    1
    15     2     6    1
    16     2     3    1
    17     6     5    2
    18    10     3    1
    19     3     4    2
    20     5     4    1
    21     5    12    1
    22     4    11    1
