@<TRIPOS>MOLECULE
2,3,6
 34 34 0 0 0
SMALL
GASTEIGER

@<TRIPOS>ATOM
      1 SI          8.7088    7.6472    5.8214 Si      1  UNL1        0.0000
      2 C           8.2608    8.7702    4.3720 C.3     1  UNL1        0.0000
      3 C           8.9547    8.6688    3.0894 C.2     1  UNL1        0.0000
      4 C           9.1934    9.9369    2.5983 C.2     1  UNL1        0.0000
      5 C           8.7030   10.8888    3.5335 C.2     1  UNL1        0.0000
      6 C           8.1474   10.2131    4.6067 C.2     1  UNL1        0.0000
      7 C           9.3594    7.3935    2.4052 C.3     1  UNL1        0.0000
      8 H          10.4438    7.2675    2.4425 H       1  UNL1        0.0000
      9 H           9.0658    7.4055    1.3531 H       1  UNL1        0.0000
     10 H           8.9006    6.5335    2.8823 H       1  UNL1        0.0000
     11 C           9.8626   10.2990    1.3086 C.3     1  UNL1        0.0000
     12 H          10.2997    9.4222    0.8385 H       1  UNL1        0.0000
     13 H          10.6549   11.0275    1.4822 H       1  UNL1        0.0000
     14 H           9.1493   10.7430    0.6110 H       1  UNL1        0.0000
     15 C           8.8504   12.3707    3.3737 C.3     1  UNL1        0.0000
     16 H           9.9006   12.6570    3.4615 H       1  UNL1        0.0000
     17 H           8.2906   12.9078    4.1359 H       1  UNL1        0.0000
     18 H           8.5055   12.6948    2.3910 H       1  UNL1        0.0000
     19 C           7.7086   10.8704    5.8882 C.3     1  UNL1        0.0000
     20 H           6.8925   11.5814    5.7272 H       1  UNL1        0.0000
     21 H           8.5411   11.4253    6.3276 H       1  UNL1        0.0000
     22 H           7.3783   10.1304    6.6110 H       1  UNL1        0.0000
     23 C          10.1367    8.4300    6.8379 C.3     1  UNL1        0.0000
     24 H           9.8613    9.3978    7.2426 H       1  UNL1        0.0000
     25 H          11.0126    8.5788    6.2144 H       1  UNL1        0.0000
     26 H          10.4267    7.7949    7.6698 H       1  UNL1        0.0000
     27 C           7.2227    7.3708    7.0051 C.3     1  UNL1        0.0000
     28 H           6.2990    7.2354    6.4461 H       1  UNL1        0.0000
     29 H           7.0871    8.1960    7.6969 H       1  UNL1        0.0000
     30 H           7.3777    6.4802    7.6065 H       1  UNL1        0.0000
     31 C           9.3261    5.8865    5.3977 C.3     1  UNL1        0.0000
     32 H          10.2150    5.9007    4.7781 H       1  UNL1        0.0000
     33 H           8.5672    5.2984    4.8947 H       1  UNL1        0.0000
     34 H           9.5795    5.3660    6.3166 H       1  UNL1        0.0000
@<TRIPOS>BOND
     1    14    11    1
     2    12    11    1
     3    11    13    1
     4    11     4    1
     5     9     7    1
     6    18    15    1
     7     7     8    1
     8     7    10    1
     9     7     3    1
    10     4     3    2
    11     4     5    1
    12     3     2    1
    13    15    16    1
    14    15     5    1
    15    15    17    1
    16     5     6    2
    17     2     6    1
    18     2     1    1
    19     6    19    1
    20    32    31    1
    21    33    31    1
    22    31     1    1
    23    31    34    1
    24    20    19    1
    25     1    23    1
    26     1    27    1
    27    19    21    1
    28    19    22    1
    29    25    23    1
    30    28    27    1
    31    23    24    1
    32    23    26    1
    33    27    30    1
    34    27    29    1
