@<TRIPOS>MOLECULE
2,3,6
 34 34 0 0 0
SMALL
GASTEIGER

@<TRIPOS>ATOM
      1 SI          3.5532    6.8270    1.7051 Si      1  UNL1        0.0000
      2 C           4.4896    6.8844    3.3544 C.3     1  UNL1        0.0000
      3 C           5.3967    5.7689    3.6553 C.2     1  UNL1        0.0000
      4 C           5.1338    5.3027    4.9207 C.2     1  UNL1        0.0000
      5 C           4.0671    6.0748    5.4822 C.2     1  UNL1        0.0000
      6 C           3.6660    7.0116    4.5594 C.2     1  UNL1        0.0000
      7 C           6.3489    5.1662    2.6616 C.3     1  UNL1        0.0000
      8 H           5.8579    4.3661    2.1026 H       1  UNL1        0.0000
      9 H           7.2120    4.7283    3.1610 H       1  UNL1        0.0000
     10 H           6.7027    5.9144    1.9492 H       1  UNL1        0.0000
     11 C           5.7881    4.1641    5.6361 C.3     1  UNL1        0.0000
     12 H           6.4638    3.6234    4.9785 H       1  UNL1        0.0000
     13 H           5.0335    3.4643    5.9962 H       1  UNL1        0.0000
     14 H           6.3550    4.5140    6.4998 H       1  UNL1        0.0000
     15 C           3.5058    5.8167    6.8457 C.3     1  UNL1        0.0000
     16 H           3.0356    4.8324    6.8785 H       1  UNL1        0.0000
     17 H           2.7525    6.5542    7.1157 H       1  UNL1        0.0000
     18 H           4.2930    5.8266    7.6018 H       1  UNL1        0.0000
     19 C           2.4769    7.9213    4.6742 C.3     1  UNL1        0.0000
     20 H           2.2592    8.1605    5.7143 H       1  UNL1        0.0000
     21 H           1.5890    7.4412    4.2560 H       1  UNL1        0.0000
     22 H           2.6410    8.8555    4.1371 H       1  UNL1        0.0000
     23 C           4.6637    6.5934    0.1575 C.3     1  UNL1        0.0000
     24 H           5.5098    7.2768    0.1579 H       1  UNL1        0.0000
     25 H           4.0874    6.7867   -0.7420 H       1  UNL1        0.0000
     26 H           5.0470    5.5827    0.0798 H       1  UNL1        0.0000
     27 C           2.5810    8.4492    1.3581 C.3     1  UNL1        0.0000
     28 H           1.6494    8.4965    1.9113 H       1  UNL1        0.0000
     29 H           2.3324    8.5232    0.3041 H       1  UNL1        0.0000
     30 H           3.1795    9.3197    1.6168 H       1  UNL1        0.0000
     31 C           2.2964    5.3790    1.7136 C.3     1  UNL1        0.0000
     32 H           1.7297    5.3315    0.7891 H       1  UNL1        0.0000
     33 H           1.5906    5.4749    2.5320 H       1  UNL1        0.0000
     34 H           2.8061    4.4297    1.8405 H       1  UNL1        0.0000
@<TRIPOS>BOND
     1    25    23    1
     2    26    23    1
     3    23    24    1
     4    23     1    1
     5    29    27    1
     6    32    31    1
     7    27    30    1
     8    27     1    1
     9    27    28    1
    10     1    31    1
    11     1     2    1
    12    31    34    1
    13    31    33    1
    14    10     7    1
    15     8     7    1
    16     7     9    1
    17     7     3    1
    18     2     3    1
    19     2     6    1
    20     3     4    2
    21    22    19    1
    22    21    19    1
    23     6    19    1
    24     6     5    2
    25    19    20    1
    26     4     5    1
    27     4    11    1
    28    12    11    1
    29     5    15    1
    30    11    13    1
    31    11    14    1
    32    15    16    1
    33    15    17    1
    34    15    18    1
