@<TRIPOS>MOLECULE
2,3,4
 29 28 0 0 0
SMALL
GASTEIGER

@<TRIPOS>ATOM
      1 SI         -2.4093    8.0559    5.2540 Si      1  UNL1        0.0000
      2 S          -0.9864    7.6804    7.9462 S.3     1  UNL1        0.0000
      3 S          -1.4048    5.1869    5.6926 S.3     1  UNL1        0.0000
      4 S           0.6372    7.7821    4.9635 S.3     1  UNL1        0.0000
      5 C          -3.8736    8.9931    4.4963 C.3     1  UNL1        0.0000
      6 H          -4.7170    9.0143    5.1761 H       1  UNL1        0.0000
      7 H          -4.2021    8.5257    3.5757 H       1  UNL1        0.0000
      8 H          -3.6054   10.0181    4.2696 H       1  UNL1        0.0000
      9 C          -1.7282    8.9359    6.8147 C.3     1  UNL1        0.0000
     10 H          -0.9400    9.6403    6.5556 H       1  UNL1        0.0000
     11 H          -2.4964    9.4608    7.3808 H       1  UNL1        0.0000
     12 C           0.0390    8.7833    8.9482 C.3     1  UNL1        0.0000
     13 H          -0.5911    9.5226    9.4377 H       1  UNL1        0.0000
     14 H           0.7871    9.2581    8.3190 H       1  UNL1        0.0000
     15 H           0.5270    8.1545    9.6866 H       1  UNL1        0.0000
     16 C          -2.8923    6.2769    5.7802 C.3     1  UNL1        0.0000
     17 H          -3.2467    6.2545    6.8090 H       1  UNL1        0.0000
     18 H          -3.6510    5.8315    5.1380 H       1  UNL1        0.0000
     19 C          -1.9804    3.8479    6.7638 C.3     1  UNL1        0.0000
     20 H          -2.8883    3.4146    6.3504 H       1  UNL1        0.0000
     21 H          -2.1481    4.2299    7.7673 H       1  UNL1        0.0000
     22 H          -1.1836    3.1106    6.7808 H       1  UNL1        0.0000
     23 C          -0.9485    7.8926    4.0238 C.3     1  UNL1        0.0000
     24 H          -1.0349    6.9828    3.4324 H       1  UNL1        0.0000
     25 H          -0.8593    8.7424    3.3485 H       1  UNL1        0.0000
     26 C           1.6638    7.0297    3.6780 C.3     1  UNL1        0.0000
     27 H           1.6903    7.6788    2.8057 H       1  UNL1        0.0000
     28 H           1.2712    6.0480    3.4264 H       1  UNL1        0.0000
     29 H           2.6574    6.9287    4.1042 H       1  UNL1        0.0000
@<TRIPOS>BOND
     1    27    26    1
     2    25    23    1
     3    28    26    1
     4    24    23    1
     5     7     5    1
     6    26    29    1
     7    26     4    1
     8    23     4    1
     9    23     1    1
    10     8     5    1
    11     5     6    1
    12     5     1    1
    13    18    16    1
    14     1    16    1
    15     1     9    1
    16     3    16    1
    17     3    19    1
    18    16    17    1
    19    20    19    1
    20    10     9    1
    21    19    22    1
    22    19    21    1
    23     9    11    1
    24     9     2    1
    25     2    12    1
    26    14    12    1
    27    12    13    1
    28    12    15    1
