@<TRIPOS>MOLECULE
1,2,3
 29 28 0 0 0
SMALL
GASTEIGER

@<TRIPOS>ATOM
      1 S           6.7454   20.3394   14.6189 S.3     1  UNL1        0.0000
      2 S           8.7990   17.4452   14.9610 S.3     1  UNL1        0.0000
      3 S           7.1458   18.1121   11.8607 S.3     1  UNL1        0.0000
      4 SI          5.7706   17.4396   14.5090 Si      1  UNL1        0.0000
      5 C           4.2675   16.4417   15.0921 C.3     1  UNL1        0.0000
      6 H           4.5088   15.3891   15.1790 H       1  UNL1        0.0000
      7 H           3.4427   16.5362   14.3959 H       1  UNL1        0.0000
      8 H           3.9243   16.7841   16.0609 H       1  UNL1        0.0000
      9 C           5.3091   19.2820   14.2306 C.3     1  UNL1        0.0000
     10 H           5.0480   19.4628   13.1880 H       1  UNL1        0.0000
     11 H           4.4856   19.6125   14.8639 H       1  UNL1        0.0000
     12 C           6.2465   21.8443   13.7627 C.3     1  UNL1        0.0000
     13 H           7.0551   22.5584   13.8939 H       1  UNL1        0.0000
     14 H           5.3323   22.2237   14.2157 H       1  UNL1        0.0000
     15 H           6.1012   21.6360   12.7053 H       1  UNL1        0.0000
     16 C           7.1830   17.3773   15.8070 C.3     1  UNL1        0.0000
     17 H           7.1326   18.2368   16.4752 H       1  UNL1        0.0000
     18 H           7.1701   16.4647   16.4034 H       1  UNL1        0.0000
     19 C           9.8359   17.9493   16.3459 C.3     1  UNL1        0.0000
     20 H          10.8440   18.0589   15.9552 H       1  UNL1        0.0000
     21 H           9.8103   17.1737   17.1090 H       1  UNL1        0.0000
     22 H           9.4845   18.8991   16.7424 H       1  UNL1        0.0000
     23 C           6.4573   16.7463   12.8560 C.3     1  UNL1        0.0000
     24 H           7.2667   16.0396   13.0382 H       1  UNL1        0.0000
     25 H           5.6923   16.2599   12.2503 H       1  UNL1        0.0000
     26 C           8.1640   17.1632   10.7162 C.3     1  UNL1        0.0000
     27 H           8.6668   17.8843   10.0773 H       1  UNL1        0.0000
     28 H           7.5208   16.5175   10.1213 H       1  UNL1        0.0000
     29 H           8.8969   16.5813   11.2702 H       1  UNL1        0.0000
@<TRIPOS>BOND
     1    27    26    1
     2    28    26    1
     3    26    29    1
     4    26     3    1
     5     3    23    1
     6    25    23    1
     7    15    12    1
     8    23    24    1
     9    23     4    1
    10    10     9    1
    11    12    13    1
    12    12    14    1
    13    12     1    1
    14     9     4    1
    15     9     1    1
    16     9    11    1
    17     7     5    1
    18     4     5    1
    19     4    16    1
    20     2    16    1
    21     2    19    1
    22     5     6    1
    23     5     8    1
    24    16    18    1
    25    16    17    1
    26    20    19    1
    27    19    22    1
    28    19    21    1
