@<TRIPOS>MOLECULE
1,2,3
 29 28 0 0 0
SMALL
GASTEIGER

@<TRIPOS>ATOM
      1 S           6.6087   20.0111   14.3893 S.3     1  UNL1        0.0000
      2 S           8.6612   17.0974   14.7416 S.3     1  UNL1        0.0000
      3 S           7.0196   17.7807   11.6250 S.3     1  UNL1        0.0000
      4 SI          5.6301   17.1049   14.2731 Si      1  UNL1        0.0000
      5 C           4.1238   16.1073   14.8461 C.3     1  UNL1        0.0000
      6 H           3.7752   16.4486   15.8135 H       1  UNL1        0.0000
      7 H           4.3641   15.0544   14.9331 H       1  UNL1        0.0000
      8 H           3.3030   16.2031   14.1453 H       1  UNL1        0.0000
      9 C           5.1733   18.9473   13.9916 C.3     1  UNL1        0.0000
     10 H           4.9164   19.1288   12.9488 H       1  UNL1        0.0000
     11 H           4.3460   19.2771   14.6197 H       1  UNL1        0.0000
     12 C           6.1094   21.5147   13.5237 C.3     1  UNL1        0.0000
     13 H           5.1897   21.8925   13.9653 H       1  UNL1        0.0000
     14 H           5.9767   21.3028   12.4660 H       1  UNL1        0.0000
     15 H           6.9145   22.2312   13.6590 H       1  UNL1        0.0000
     16 C           7.0348   17.0437   15.5788 C.3     1  UNL1        0.0000
     17 H           6.9853   17.9056   16.2430 H       1  UNL1        0.0000
     18 H           7.0129   16.1350   16.1801 H       1  UNL1        0.0000
     19 C           9.6950   17.5869   16.1386 C.3     1  UNL1        0.0000
     20 H           9.6570   16.8108   16.9001 H       1  UNL1        0.0000
     21 H           9.3512   18.5392   16.5339 H       1  UNL1        0.0000
     22 H          10.7059   17.6892   15.7547 H       1  UNL1        0.0000
     23 C           6.3272   16.4132   12.6244 C.3     1  UNL1        0.0000
     24 H           7.1357   15.7071   12.8096 H       1  UNL1        0.0000
     25 H           5.5658   15.9245   12.0167 H       1  UNL1        0.0000
     26 C           8.0369   16.8258   10.4794 C.3     1  UNL1        0.0000
     27 H           7.3946   16.1798    9.8846 H       1  UNL1        0.0000
     28 H           8.7690   16.2451   11.0344 H       1  UNL1        0.0000
     29 H           8.5424   17.5453    9.8416 H       1  UNL1        0.0000
@<TRIPOS>BOND
     1    29    26    1
     2    27    26    1
     3    26    28    1
     4    26     3    1
     5     3    23    1
     6    25    23    1
     7    14    12    1
     8    23    24    1
     9    23     4    1
    10    10     9    1
    11    12    15    1
    12    12    13    1
    13    12     1    1
    14     9     4    1
    15     9     1    1
    16     9    11    1
    17     8     5    1
    18     4     5    1
    19     4    16    1
    20     2    16    1
    21     2    19    1
    22     5     7    1
    23     5     6    1
    24    16    18    1
    25    16    17    1
    26    22    19    1
    27    19    21    1
    28    19    20    1
