@<TRIPOS>MOLECULE
2,3,4
 50 52 0 0 0
SMALL
GASTEIGER

@<TRIPOS>ATOM
      1 SI          1.6490    2.1251   -2.2295 Si      1  UNL1        0.0000
      2 S           3.1435    2.0503    0.4379 S.3     1  UNL1        0.0000
      3 S           1.4562    4.7757   -0.7126 S.3     1  UNL1        0.0000
      4 S          -0.2643    2.0274    0.1724 S.3     1  UNL1        0.0000
      5 C           3.5637   -0.5024    1.5088 C.ar    1  UNL1        0.0000
      6 H           3.3057   -0.9419    0.5582 H       1  UNL1        0.0000
      7 C           3.9026   -1.3341    2.5644 C.ar    1  UNL1        0.0000
      8 H           3.8921   -2.4040    2.4158 H       1  UNL1        0.0000
      9 C           4.2508   -0.8054    3.7934 C.ar    1  UNL1        0.0000
     10 H           4.5089   -1.4608    4.6111 H       1  UNL1        0.0000
     11 C           4.2694    0.5699    3.9686 C.ar    1  UNL1        0.0000
     12 H           4.5452    0.9937    4.9217 H       1  UNL1        0.0000
     13 C           3.9270    1.4076    2.9265 C.ar    1  UNL1        0.0000
     14 H           3.9284    2.4794    3.0575 H       1  UNL1        0.0000
     15 C           3.5558    0.8696    1.6987 C.ar    1  UNL1        0.0000
     16 C           3.5737    6.5681   -1.1035 C.ar    1  UNL1        0.0000
     17 H           3.9212    5.9747   -1.9347 H       1  UNL1        0.0000
     18 C           4.2745    7.7104   -0.7504 C.ar    1  UNL1        0.0000
     19 H           5.1589    7.9794   -1.3092 H       1  UNL1        0.0000
     20 C           3.8505    8.4988    0.3032 C.ar    1  UNL1        0.0000
     21 H           4.4056    9.3839    0.5744 H       1  UNL1        0.0000
     22 C           2.7089    8.1484    1.0081 C.ar    1  UNL1        0.0000
     23 H           2.3671    8.7587    1.8295 H       1  UNL1        0.0000
     24 C           2.0062    7.0099    0.6693 C.ar    1  UNL1        0.0000
     25 H           1.1231    6.7209    1.2202 H       1  UNL1        0.0000
     26 C           2.4501    6.2089   -0.3780 C.ar    1  UNL1        0.0000
     27 C          -2.6080    2.2781    1.4980 C.ar    1  UNL1        0.0000
     28 H          -2.3274    1.3270    1.9248 H       1  UNL1        0.0000
     29 C          -3.7623    2.9244    1.9008 C.ar    1  UNL1        0.0000
     30 H          -4.3977    2.4686    2.6448 H       1  UNL1        0.0000
     31 C          -4.0991    4.1501    1.3524 C.ar    1  UNL1        0.0000
     32 H          -5.0000    4.6547    1.6665 H       1  UNL1        0.0000
     33 C          -3.2697    4.7377    0.4109 C.ar    1  UNL1        0.0000
     34 H          -3.5206    5.7015   -0.0064 H       1  UNL1        0.0000
     35 C          -2.1048    4.1083    0.0145 C.ar    1  UNL1        0.0000
     36 H          -1.4445    4.5968   -0.6887 H       1  UNL1        0.0000
     37 C          -1.7806    2.8735    0.5567 C.ar    1  UNL1        0.0000
     38 C           2.5630    1.0056   -0.9661 C.3     1  UNL1        0.0000
     39 H           1.8837    0.2563   -0.5636 H       1  UNL1        0.0000
     40 H           3.4368    0.5118   -1.3886 H       1  UNL1        0.0000
     41 C           2.3711    3.8956   -2.0490 C.3     1  UNL1        0.0000
     42 H           3.4207    3.8521   -1.7627 H       1  UNL1        0.0000
     43 H           2.2687    4.4867   -2.9580 H       1  UNL1        0.0000
     44 C          -0.1858    2.1548   -1.6803 C.3     1  UNL1        0.0000
     45 H          -0.6875    3.0713   -1.9774 H       1  UNL1        0.0000
     46 H          -0.7562    1.3114   -2.0672 H       1  UNL1        0.0000
     47 C           1.8522    1.4848   -4.0026 C.3     1  UNL1        0.0000
     48 H           1.2753    2.0789   -4.7013 H       1  UNL1        0.0000
     49 H           1.5157    0.4583   -4.0862 H       1  UNL1        0.0000
     50 H           2.8890    1.5196   -4.3159 H       1  UNL1        0.0000
@<TRIPOS>BOND
     1    48    47    1
     2    50    47    1
     3    49    47    1
     4    47     1    1
     5    43    41    1
     6     1    41    1
     7     1    44    1
     8     1    38    1
     9    46    44    1
    10    41    42    1
    11    41     3    1
    12    45    44    1
    13    17    16    1
    14    44     4    1
    15    40    38    1
    16    19    18    1
    17    16    18   ar
    18    16    26   ar
    19    38    39    1
    20    38     2    1
    21    18    20   ar
    22     3    26    1
    23    36    35    1
    24    26    24   ar
    25    34    33    1
    26    35    33   ar
    27    35    37   ar
    28     4    37    1
    29    20    21    1
    30    20    22   ar
    31    33    31   ar
    32     2    15    1
    33    37    27   ar
    34     6     5    1
    35    24    22   ar
    36    24    25    1
    37    22    23    1
    38    31    32    1
    39    31    29   ar
    40    27    29   ar
    41    27    28    1
    42     5    15   ar
    43     5     7   ar
    44    15    13   ar
    45    29    30    1
    46     8     7    1
    47     7     9   ar
    48    13    14    1
    49    13    11   ar
    50     9    11   ar
    51     9    10    1
    52    11    12    1
