@<TRIPOS>MOLECULE
1,4,7
 15 14 0 0 0
SMALL
GASTEIGER

@<TRIPOS>ATOM
      1 S          -0.8756    9.8488    9.7325 S.3     1  UNL1       -0.0923
      2 C          -0.6996   11.4922    8.9436 C.3     1  UNL1        0.0129
      3 C           0.6046   11.6411    8.1836 C.3     1  UNL1        0.0035
      4 S           0.7944   10.3234    6.9208 S.3     1  UNL1       -0.1591
      5 C           2.3500    9.5088    7.4668 C.3     1  UNL1        0.0035
      6 C           2.3401    8.0663    7.0064 C.3     1  UNL1        0.0129
      7 S           1.0421    7.1002    7.8590 S.3     1  UNL1       -0.0923
      8 H          -1.5551   11.6199    8.2793 H       1  UNL1        0.0392
      9 H          -0.7543   12.2291    9.7466 H       1  UNL1        0.0392
     10 H           1.4606   11.5850    8.8545 H       1  UNL1        0.0384
     11 H           0.6254   12.5866    7.6407 H       1  UNL1        0.0384
     12 H           3.1797   10.0596    7.0208 H       1  UNL1        0.0384
     13 H           2.4061    9.5632    8.5560 H       1  UNL1        0.0384
     14 H           3.2854    7.5793    7.2510 H       1  UNL1        0.0392
     15 H           2.1654    7.9957    5.9316 H       1  UNL1        0.0392
@<TRIPOS>BOND
     1    15     6    1
     2     4     5    1
     3     4     3    1
     4     6    14    1
     5     6     5    1
     6     6     7    1
     7    12     5    1
     8     5    13    1
     9    11     3    1
    10     3    10    1
    11     3     2    1
    12     8     2    1
    13     2     1    1
    14     2     9    1
