@<TRIPOS>MOLECULE
2,3,4,6,7,9,10,13,14
 63 64 0 0 0
SMALL
GASTEIGER

@<TRIPOS>ATOM
      1 SI          5.0534    9.3835    5.0531 Si      1  UNL1        0.0000
      2 C           5.7629    8.7588    3.4222 C.3     1  UNL1        0.0000
      3 C           6.8931    9.2762    2.7259 C.3     1  UNL1        0.0000
      4 C           7.3164    8.2944    1.8010 C.3     1  UNL1        0.0000
      5 H           8.0487    8.4546    1.0234 H       1  UNL1        0.0000
      6 C           6.4887    7.1534    1.9303 C.2     1  UNL1        0.0000
      7 C           5.5531    7.4382    2.9417 C.2     1  UNL1        0.0000
      8 H           4.6964    6.8328    3.2052 H       1  UNL1        0.0000
      9 C           6.5256    8.8438    6.0968 C.3     1  UNL1        0.0000
     10 C           7.7365    9.5138    6.3947 C.2     1  UNL1        0.0000
     11 C           8.6557    8.5622    6.8721 C.2     1  UNL1        0.0000
     12 H           9.6157    8.7852    7.3124 H       1  UNL1        0.0000
     13 C           8.0546    7.2866    6.8534 C.3     1  UNL1        0.0000
     14 C           6.7328    7.4523    6.3729 C.3     1  UNL1        0.0000
     15 H           5.9479    6.7048    6.4359 H       1  UNL1        0.0000
     16 C           4.5081   11.2144    5.1275 C.3     1  UNL1        0.0000
     17 H           4.3931   11.5317    6.1585 H       1  UNL1        0.0000
     18 H           3.5460   11.3323    4.6397 H       1  UNL1        0.0000
     19 H           5.2016   11.8934    4.6466 H       1  UNL1        0.0000
     20 C           3.4953    8.3731    5.5237 C.3     1  UNL1        0.0000
     21 H           3.1158    8.6825    6.4918 H       1  UNL1        0.0000
     22 H           3.6934    7.3075    5.5751 H       1  UNL1        0.0000
     23 H           2.7034    8.5257    4.7978 H       1  UNL1        0.0000
     24 C           7.3570   10.7121    2.7431 C.3     1  UNL1        0.0000
     25 H           7.2498   11.1109    3.7587 H       1  UNL1        0.0000
     26 C           6.4702   11.5478    1.8098 C.3     1  UNL1        0.0000
     27 H           5.4303   11.4828    2.1196 H       1  UNL1        0.0000
     28 H           6.5457   11.1745    0.7908 H       1  UNL1        0.0000
     29 H           6.7758   12.5926    1.8209 H       1  UNL1        0.0000
     30 C           8.8243   10.8373    2.3277 C.3     1  UNL1        0.0000
     31 H           9.1929   11.8426    2.5258 H       1  UNL1        0.0000
     32 H           8.9376   10.6448    1.2626 H       1  UNL1        0.0000
     33 H           9.4273   10.1164    2.8813 H       1  UNL1        0.0000
     34 C           6.5554    5.9025    1.0775 C.3     1  UNL1        0.0000
     35 H           7.2030    5.1626    1.5733 H       1  UNL1        0.0000
     36 C           5.1665    5.2806    0.9067 C.3     1  UNL1        0.0000
     37 H           5.2151    4.4247    0.2359 H       1  UNL1        0.0000
     38 H           4.4786    6.0107    0.4859 H       1  UNL1        0.0000
     39 H           4.7716    4.9395    1.8597 H       1  UNL1        0.0000
     40 C           7.1513    6.1996   -0.3017 C.3     1  UNL1        0.0000
     41 H           7.1179    5.3084   -0.9258 H       1  UNL1        0.0000
     42 H           8.1891    6.5145   -0.2233 H       1  UNL1        0.0000
     43 H           6.5836    6.9860   -0.7945 H       1  UNL1        0.0000
     44 C           7.9041   11.0082    6.5006 C.3     1  UNL1        0.0000
     45 H           7.1510   11.4947    5.8729 H       1  UNL1        0.0000
     46 C           7.6385   11.4397    7.9491 C.3     1  UNL1        0.0000
     47 H           6.6416   11.1307    8.2536 H       1  UNL1        0.0000
     48 H           7.7164   12.5208    8.0490 H       1  UNL1        0.0000
     49 H           8.3590   10.9753    8.6183 H       1  UNL1        0.0000
     50 C           9.2893   11.4830    6.0595 C.3     1  UNL1        0.0000
     51 H           9.3355   12.5708    6.0678 H       1  UNL1        0.0000
     52 H           9.5135   11.1332    5.0545 H       1  UNL1        0.0000
     53 H          10.0548   11.1106    6.7366 H       1  UNL1        0.0000
     54 C           8.6248    6.0303    7.4622 C.3     1  UNL1        0.0000
     55 H           8.0946    5.1661    7.0421 H       1  UNL1        0.0000
     56 C          10.1155    5.8926    7.1458 C.3     1  UNL1        0.0000
     57 H          10.4804    4.9084    7.4345 H       1  UNL1        0.0000
     58 H          10.6896    6.6379    7.6923 H       1  UNL1        0.0000
     59 H          10.2790    6.0370    6.0777 H       1  UNL1        0.0000
     60 C           8.3985    6.0376    8.9797 C.3     1  UNL1        0.0000
     61 H           8.7953    5.1310    9.4329 H       1  UNL1        0.0000
     62 H           7.3365    6.1034    9.2038 H       1  UNL1        0.0000
     63 H           8.8938    6.8960    9.4278 H       1  UNL1        0.0000
@<TRIPOS>BOND
     1    41    40    1
     2    43    40    1
     3    40    42    1
     4    40    34    1
     5    37    36    1
     6    38    36    1
     7    28    26    1
     8    36    34    1
     9    36    39    1
    10     5     4    1
    11    34    35    1
    12    34     6    1
    13    32    30    1
    14     4     6    1
    15     4     3    1
    16    26    29    1
    17    26    27    1
    18    26    24    1
    19     6     7    2
    20    30    31    1
    21    30    24    1
    22    30    33    1
    23     3    24    1
    24     3     2    1
    25    24    25    1
    26     7     8    1
    27     7     2    1
    28     2     1    1
    29    18    16    1
    30    19    16    1
    31    23    20    1
    32     1    16    1
    33     1    20    1
    34     1     9    1
    35    52    50    1
    36    16    17    1
    37    20    22    1
    38    20    21    1
    39    45    44    1
    40    50    51    1
    41    50    44    1
    42    50    53    1
    43    59    56    1
    44     9    14    1
    45     9    10    1
    46    14    15    1
    47    14    13    1
    48    10    44    1
    49    10    11    2
    50    44    46    1
    51    13    11    1
    52    13    54    1
    53    11    12    1
    54    55    54    1
    55    56    57    1
    56    56    54    1
    57    56    58    1
    58    54    60    1
    59    46    48    1
    60    46    47    1
    61    46    49    1
    62    60    62    1
    63    60    63    1
    64    60    61    1
