@<TRIPOS>MOLECULE
2,3,4,6,21,41,42,43,60
 79 86 0 0 0
SMALL
GASTEIGER

@<TRIPOS>ATOM
      1 SI          5.0034    7.3656   22.7681 Si      1  UNL1        0.0000
      2 C           5.3361    6.4380   21.1519 C.2     1  UNL1        0.0000
      3 C           6.4458    5.5777   20.8944 C.3     1  UNL1        0.0000
      4 C           6.6536    5.4674   19.5095 C.2     1  UNL1        0.0000
      5 H           7.3454    4.7798   19.0403 H       1  UNL1        0.0000
      6 C           5.6733    6.2510   18.8446 C.ar    1  UNL1        0.0000
      7 C           5.3932    6.4221   17.4636 C.ar    1  UNL1        0.0000
      8 C           4.2812    7.1695   17.1398 C.ar    1  UNL1        0.0000
      9 C           3.7502    7.5326   15.7803 C.3     1  UNL1        0.0000
     10 H           3.1394    6.7145   15.3880 H       1  UNL1        0.0000
     11 H           4.5408    7.7387   15.0585 H       1  UNL1        0.0000
     12 C           2.8624    8.7519   16.0642 C.3     1  UNL1        0.0000
     13 H           3.4671    9.6610   16.0338 H       1  UNL1        0.0000
     14 H           2.0554    8.8584   15.3407 H       1  UNL1        0.0000
     15 C           2.3492    8.5266   17.4925 C.3     1  UNL1        0.0000
     16 H           2.1268    9.4594   18.0125 H       1  UNL1        0.0000
     17 H           1.4369    7.9229   17.4815 H       1  UNL1        0.0000
     18 C           3.4666    7.7530   18.1354 C.ar    1  UNL1        0.0000
     19 C           3.7229    7.6133   19.4754 C.ar    1  UNL1        0.0000
     20 H           3.0486    8.0318   20.2082 H       1  UNL1        0.0000
     21 C           4.8465    6.8564   19.8664 C.ar    1  UNL1        0.0000
     22 C           6.3196    5.8646   16.4663 C.ar    1  UNL1        0.0000
     23 C           7.6925    6.0551   16.6392 C.ar    1  UNL1        0.0000
     24 H           8.0480    6.6080   17.5060 H       1  UNL1        0.0000
     25 C           8.5904    5.5627   15.7107 C.ar    1  UNL1        0.0000
     26 H           9.6491    5.7207   15.8557 H       1  UNL1        0.0000
     27 C           8.1361    4.8692   14.6001 C.ar    1  UNL1        0.0000
     28 H           8.8389    4.4834   13.8764 H       1  UNL1        0.0000
     29 C           6.7774    4.6705   14.4243 C.ar    1  UNL1        0.0000
     30 H           6.4185    4.1247   13.5636 H       1  UNL1        0.0000
     31 C           5.8747    5.1660   15.3483 C.ar    1  UNL1        0.0000
     32 H           4.8183    4.9900   15.2158 H       1  UNL1        0.0000
     33 C           7.2350    4.7667   21.8834 C.3     1  UNL1        0.0000
     34 H           6.7284    4.7105   22.8423 H       1  UNL1        0.0000
     35 H           8.2363    5.1835   22.0270 H       1  UNL1        0.0000
     36 H           7.3568    3.7513   21.5040 H       1  UNL1        0.0000
     37 C           3.2455    8.1051   22.9249 C.3     1  UNL1        0.0000
     38 H           3.0149    8.8805   22.2068 H       1  UNL1        0.0000
     39 H           3.1172    8.5310   23.9147 H       1  UNL1        0.0000
     40 H           2.5061    7.3188   22.8128 H       1  UNL1        0.0000
     41 C           6.3854    8.6275   22.4914 C.3     1  UNL1        0.0000
     42 C           6.3187    9.7831   21.6563 C.2     1  UNL1        0.0000
     43 C           7.6211   10.2082   21.3278 C.2     1  UNL1        0.0000
     44 H           7.8723   11.1477   20.8554 H       1  UNL1        0.0000
     45 C           8.5493    9.3317   21.9563 C.ar    1  UNL1        0.0000
     46 C           9.9670    9.3317   21.9908 C.ar    1  UNL1        0.0000
     47 C          10.5765    8.3419   22.7262 C.ar    1  UNL1        0.0000
     48 C          12.0438    8.1057   22.9407 C.3     1  UNL1        0.0000
     49 H          12.6138    9.0312   23.0252 H       1  UNL1        0.0000
     50 H          12.4468    7.5345   22.0998 H       1  UNL1        0.0000
     51 C          12.0782    7.2603   24.2212 C.3     1  UNL1        0.0000
     52 H          12.9496    6.6086   24.2679 H       1  UNL1        0.0000
     53 H          12.0966    7.9195   25.0912 H       1  UNL1        0.0000
     54 C          10.7580    6.4784   24.2024 C.3     1  UNL1        0.0000
     55 H          10.8754    5.5426   23.6470 H       1  UNL1        0.0000
     56 H          10.3974    6.2348   25.2023 H       1  UNL1        0.0000
     57 C           9.8299    7.3939   23.4560 C.ar    1  UNL1        0.0000
     58 C           8.4600    7.3737   23.4438 C.ar    1  UNL1        0.0000
     59 H           7.9158    6.6739   24.0603 H       1  UNL1        0.0000
     60 C           7.7830    8.3344   22.6643 C.ar    1  UNL1        0.0000
     61 C          10.7323   10.3570   21.2574 C.ar    1  UNL1        0.0000
     62 C          10.5313   11.7106   21.5124 C.ar    1  UNL1        0.0000
     63 H           9.8264   12.0068   22.2763 H       1  UNL1        0.0000
     64 C          11.2431   12.6678   20.8127 C.ar    1  UNL1        0.0000
     65 H          11.0842   13.7161   21.0223 H       1  UNL1        0.0000
     66 C          12.1595   12.2860   19.8471 C.ar    1  UNL1        0.0000
     67 H          12.7135   13.0353   19.3005 H       1  UNL1        0.0000
     68 C          12.3635   10.9412   19.5860 C.ar    1  UNL1        0.0000
     69 H          13.0752   10.6397   18.8312 H       1  UNL1        0.0000
     70 C          11.6575    9.9815   20.2874 C.ar    1  UNL1        0.0000
     71 H          11.7959    8.9329   20.0714 H       1  UNL1        0.0000
     72 C           5.0763   10.5307   21.2574 C.3     1  UNL1        0.0000
     73 H           4.4715   10.7592   22.1349 H       1  UNL1        0.0000
     74 H           4.4675    9.9540   20.5565 H       1  UNL1        0.0000
     75 H           5.3470   11.4699   20.7767 H       1  UNL1        0.0000
     76 C           5.1149    6.3516   24.3884 C.3     1  UNL1        0.0000
     77 H           6.0397    5.8074   24.5288 H       1  UNL1        0.0000
     78 H           4.3034    5.6318   24.4262 H       1  UNL1        0.0000
     79 H           5.0012    7.0169   25.2383 H       1  UNL1        0.0000
@<TRIPOS>BOND
     1    30    29    1
     2    28    27    1
     3    29    27   ar
     4    29    31   ar
     5    27    25   ar
     6    11     9    1
     7    32    31    1
     8    14    12    1
     9    31    22   ar
    10    10     9    1
    11    25    26    1
    12    25    23   ar
    13     9    12    1
    14     9     8    1
    15    13    12    1
    16    12    15    1
    17    22    23   ar
    18    22     7    1
    19    23    24    1
    20     8     7   ar
    21     8    18   ar
    22     7     6   ar
    23    17    15    1
    24    15    16    1
    25    15    18    1
    26    18    19   ar
    27    69    68    1
    28     6     4    2
    29     6    21   ar
    30     5     4    1
    31    67    66    1
    32    19    21   ar
    33    19    20    1
    34     4     3    1
    35    68    66   ar
    36    68    70   ar
    37    66    64   ar
    38    21     2    2
    39    71    70    1
    40    70    61   ar
    41    74    72    1
    42    75    72    1
    43    64    65    1
    44    64    62   ar
    45    44    43    1
    46     3     2    1
    47     3    33    1
    48     2     1    1
    49    61    62   ar
    50    61    46    1
    51    72    42    1
    52    72    73    1
    53    43    42    2
    54    43    45    1
    55    36    33    1
    56    62    63    1
    57    42    41    1
    58    33    35    1
    59    33    34    1
    60    45    46   ar
    61    45    60   ar
    62    46    47   ar
    63    50    48    1
    64    38    37    1
    65    41    60    1
    66    41     1    1
    67    60    58   ar
    68    47    48    1
    69    47    57   ar
    70     1    37    1
    71     1    76    1
    72    40    37    1
    73    37    39    1
    74    48    49    1
    75    48    51    1
    76    58    57   ar
    77    58    59    1
    78    57    54    1
    79    55    54    1
    80    54    51    1
    81    54    56    1
    82    51    52    1
    83    51    53    1
    84    76    78    1
    85    76    77    1
    86    76    79    1
