@<TRIPOS>MOLECULE
3,4,5,6,7,36,37,50,53
 53 54 0 0 0
SMALL
GASTEIGER

@<TRIPOS>ATOM
      1 SI         -3.4567   -0.5016   -8.6527 Si      1  UNL1        0.0000
      2 O           1.5951   -0.0589   -6.6408 O.2     1  UNL1        0.0000
      3 C          -1.8199   -0.9107   -9.4752 C.3     1  UNL1        0.0000
      4 C          -0.7906   -1.6775   -8.8586 C.2     1  UNL1        0.0000
      5 C           0.3698   -1.6111   -9.6643 C.2     1  UNL1        0.0000
      6 C           0.0623   -0.8117  -10.8059 C.2     1  UNL1        0.0000
      7 C          -1.2812   -0.3893  -10.6926 C.2     1  UNL1        0.0000
      8 C          -0.9016   -2.5089   -7.6230 C.3     1  UNL1        0.0000
      9 H           0.0728   -2.6152   -7.1502 H       1  UNL1        0.0000
     10 H          -1.2672   -3.5083   -7.8685 H       1  UNL1        0.0000
     11 H          -1.5818   -2.0619   -6.9033 H       1  UNL1        0.0000
     12 C           1.6325   -2.3823   -9.4324 C.3     1  UNL1        0.0000
     13 H           1.4503   -3.4523   -9.5442 H       1  UNL1        0.0000
     14 H           2.4009   -2.0893  -10.1423 H       1  UNL1        0.0000
     15 H           2.0145   -2.2051   -8.4282 H       1  UNL1        0.0000
     16 C           0.9516   -0.6111  -11.9945 C.3     1  UNL1        0.0000
     17 H           0.6527    0.2694  -12.5579 H       1  UNL1        0.0000
     18 H           0.8959   -1.4767  -12.6581 H       1  UNL1        0.0000
     19 H           1.9871   -0.4816  -11.6868 H       1  UNL1        0.0000
     20 C          -2.0221    0.3305  -11.7769 C.3     1  UNL1        0.0000
     21 H          -2.9612    0.7339  -11.4164 H       1  UNL1        0.0000
     22 H          -2.2400   -0.3541  -12.5998 H       1  UNL1        0.0000
     23 H          -1.4246    1.1496  -12.1751 H       1  UNL1        0.0000
     24 C          -4.7910    0.4279   -9.6625 C.3     1  UNL1        0.0000
     25 H          -4.4995    1.4360   -9.9395 H       1  UNL1        0.0000
     26 H          -5.6990    0.5086   -9.0709 H       1  UNL1        0.0000
     27 H          -5.0476   -0.1114  -10.5682 H       1  UNL1        0.0000
     28 C          -4.3486   -2.0679   -8.0234 C.3     1  UNL1        0.0000
     29 H          -3.7942   -2.6154   -7.2722 H       1  UNL1        0.0000
     30 H          -5.3191   -1.8194   -7.6064 H       1  UNL1        0.0000
     31 H          -4.5188   -2.7415   -8.8576 H       1  UNL1        0.0000
     32 C          -2.8822    0.7742   -7.2835 C.3     1  UNL1        0.0000
     33 H          -3.6877    1.5024   -7.1389 H       1  UNL1        0.0000
     34 C          -2.5159    0.1559   -5.9713 C.2     1  UNL1        0.0000
     35 C          -1.2346    0.3747   -5.6474 C.2     1  UNL1        0.0000
     36 C          -0.5405    1.2152   -6.6763 C.3     1  UNL1        0.0000
     37 C          -1.6144    1.4813   -7.6897 C.3     1  UNL1        0.0000
     38 C          -3.5264   -0.5581   -5.1321 C.3     1  UNL1        0.0000
     39 H          -3.2689   -1.6093   -5.0000 H       1  UNL1        0.0000
     40 H          -4.5108   -0.4983   -5.5872 H       1  UNL1        0.0000
     41 H          -3.5751   -0.1079   -4.1409 H       1  UNL1        0.0000
     42 C          -0.5299   -0.0970   -4.4199 C.3     1  UNL1        0.0000
     43 H          -0.5158    0.6855   -3.6601 H       1  UNL1        0.0000
     44 H          -1.0256   -0.9696   -4.0009 H       1  UNL1        0.0000
     45 H           0.5007   -0.3540   -4.6588 H       1  UNL1        0.0000
     46 C           0.1440    2.4535   -6.0889 C.3     1  UNL1        0.0000
     47 H          -0.5974    3.0873   -5.6025 H       1  UNL1        0.0000
     48 H           0.8885    2.1496   -5.3558 H       1  UNL1        0.0000
     49 H           0.6478    3.0265   -6.8651 H       1  UNL1        0.0000
     50 C          -1.4526    2.3923   -8.7146 C.3     1  UNL1        0.0000
     51 H          -0.7902    3.2400   -8.6273 H       1  UNL1        0.0000
     52 H          -2.2899    2.5595   -9.3807 H       1  UNL1        0.0000
     53 C           0.7026    0.3691   -7.3024 C.2     1  UNL1        0.0000
@<TRIPOS>BOND
     1    18    16    1
     2    22    20    1
     3    17    16    1
     4    23    20    1
     5    16    19    1
     6    16     6    1
     7    20    21    1
     8    20     7    1
     9     6     7    2
    10     6     5    1
    11     7     3    1
    12    27    24    1
    13    14    12    1
    14    25    24    1
    15     5    12    1
    16     5     4    2
    17    24    26    1
    18    24     1    1
    19    13    12    1
    20     3     4    1
    21     3     1    1
    22    12    15    1
    23    52    50    1
    24     4     8    1
    25    31    28    1
    26    50    51    1
    27    50    37    1
    28     1    28    1
    29     1    32    1
    30    28    30    1
    31    28    29    1
    32    10     8    1
    33    37    32    1
    34    37    36    1
    35     8     9    1
    36     8    11    1
    37    53    36    1
    38    53     2    2
    39    32    33    1
    40    32    34    1
    41    49    46    1
    42    36    46    1
    43    36    35    1
    44    46    47    1
    45    46    48    1
    46    34    35    2
    47    34    38    1
    48    35    42    1
    49    40    38    1
    50    38    39    1
    51    38    41    1
    52    45    42    1
    53    42    44    1
    54    42    43    1
