@<TRIPOS>MOLECULE
1,2,3
 150 153 0 0 0
SMALL
GASTEIGER

@<TRIPOS>ATOM
      1 P           1.4045   12.8598   17.6653 P.3     1  UNL1        0.0000
      2 SI         -0.4965   11.9126   17.0790 Si      1  UNL1        0.0000
      3 SI          2.6028   11.1808   16.6951 Si      1  UNL1        0.0000
      4 N          -3.0123   13.2630   17.9717 N.pl3   1  UNL1        0.0000
      5 N          -1.7768   12.6336   19.6468 N.pl3   1  UNL1        0.0000
      6 C          -1.7873   12.7900   18.3052 C.3     1  UNL1        0.0000
      7 C          -3.7969   13.3302   19.1043 C.2     1  UNL1        0.0000
      8 C          -3.0166   12.9459   20.1555 C.2     1  UNL1        0.0000
      9 C          -3.2496   14.0404   16.7605 C.3     1  UNL1        0.0000
     10 H          -2.4333   13.7782   16.0902 H       1  UNL1        0.0000
     11 C          -3.1295   15.5283   17.1002 C.3     1  UNL1        0.0000
     12 H          -3.9300   15.8594   17.7566 H       1  UNL1        0.0000
     13 H          -3.1784   16.1092   16.1838 H       1  UNL1        0.0000
     14 H          -2.1780   15.7308   17.5859 H       1  UNL1        0.0000
     15 C          -4.5606   13.7440   16.0406 C.3     1  UNL1        0.0000
     16 H          -4.7293   12.6756   15.9673 H       1  UNL1        0.0000
     17 H          -4.4820   14.1350   15.0298 H       1  UNL1        0.0000
     18 H          -5.4131   14.2160   16.5186 H       1  UNL1        0.0000
     19 C          -5.2429   13.6796   19.1148 C.3     1  UNL1        0.0000
     20 H          -5.7979   13.0170   18.4534 H       1  UNL1        0.0000
     21 H          -5.4199   14.7074   18.8047 H       1  UNL1        0.0000
     22 H          -5.6401   13.5595   20.1186 H       1  UNL1        0.0000
     23 C          -3.4009   12.8743   21.5898 C.3     1  UNL1        0.0000
     24 H          -4.4047   13.2690   21.7201 H       1  UNL1        0.0000
     25 H          -2.7274   13.4621   22.2083 H       1  UNL1        0.0000
     26 H          -3.3901   11.8462   21.9454 H       1  UNL1        0.0000
     27 C          -0.5553   12.4989   20.4314 C.3     1  UNL1        0.0000
     28 H           0.1903   12.0791   19.7449 H       1  UNL1        0.0000
     29 C          -0.0733   13.8951   20.8234 C.3     1  UNL1        0.0000
     30 H           0.2106   14.4455   19.9286 H       1  UNL1        0.0000
     31 H           0.8034   13.8018   21.4571 H       1  UNL1        0.0000
     32 H          -0.8383   14.4530   21.3606 H       1  UNL1        0.0000
     33 C          -0.6618   11.5710   21.6382 C.3     1  UNL1        0.0000
     34 H          -1.0107   12.0860   22.5284 H       1  UNL1        0.0000
     35 H           0.3290   11.1757   21.8500 H       1  UNL1        0.0000
     36 H          -1.3146   10.7287   21.4321 H       1  UNL1        0.0000
     37 C          -1.3881   12.0030   15.3833 C.ar    1  UNL1        0.0000
     38 C          -2.4577   11.1311   15.1452 C.ar    1  UNL1        0.0000
     39 C          -3.2181   11.2733   13.9926 C.ar    1  UNL1        0.0000
     40 H          -4.0373   10.5925   13.8164 H       1  UNL1        0.0000
     41 C          -2.9550   12.2677   13.0661 C.ar    1  UNL1        0.0000
     42 C          -1.8567   13.0850   13.2828 C.ar    1  UNL1        0.0000
     43 H          -1.6208   13.8364   12.5446 H       1  UNL1        0.0000
     44 C          -1.0448   12.9469   14.4014 C.ar    1  UNL1        0.0000
     45 C          -2.7870    9.9792   16.0680 C.3     1  UNL1        0.0000
     46 H          -2.0633    9.9683   16.8860 H       1  UNL1        0.0000
     47 C          -4.1782   10.0908   16.6929 C.3     1  UNL1        0.0000
     48 H          -4.2372   10.9612   17.3428 H       1  UNL1        0.0000
     49 H          -4.3790    9.2086   17.2972 H       1  UNL1        0.0000
     50 H          -4.9525   10.1636   15.9314 H       1  UNL1        0.0000
     51 C          -2.6435    8.6469   15.3277 C.3     1  UNL1        0.0000
     52 H          -3.3776    8.5509   14.5311 H       1  UNL1        0.0000
     53 H          -2.7812    7.8207   16.0219 H       1  UNL1        0.0000
     54 H          -1.6499    8.5635   14.8956 H       1  UNL1        0.0000
     55 C          -3.7901   12.4207   11.8189 C.3     1  UNL1        0.0000
     56 H          -3.4298   13.2995   11.2719 H       1  UNL1        0.0000
     57 C          -5.2673   12.6396   12.1492 C.3     1  UNL1        0.0000
     58 H          -5.6776   11.7864   12.6835 H       1  UNL1        0.0000
     59 H          -5.8396   12.7755   11.2340 H       1  UNL1        0.0000
     60 H          -5.3943   13.5252   12.7686 H       1  UNL1        0.0000
     61 C          -3.6125   11.1952   10.9190 C.3     1  UNL1        0.0000
     62 H          -2.5592   11.0428   10.6946 H       1  UNL1        0.0000
     63 H          -4.1527   11.3295    9.9842 H       1  UNL1        0.0000
     64 H          -3.9897   10.3010   11.4089 H       1  UNL1        0.0000
     65 C           0.1880   13.8138   14.5264 C.3     1  UNL1        0.0000
     66 H           0.9240   13.2640   15.1220 H       1  UNL1        0.0000
     67 C          -0.1274   15.1150   15.2666 C.3     1  UNL1        0.0000
     68 H          -0.9879   15.6152   14.8254 H       1  UNL1        0.0000
     69 H           0.7269   15.7858   15.2146 H       1  UNL1        0.0000
     70 H          -0.3251   14.9078   16.3161 H       1  UNL1        0.0000
     71 C           0.8437   14.1351   13.1817 C.3     1  UNL1        0.0000
     72 H           0.9576   13.2401   12.5758 H       1  UNL1        0.0000
     73 H           1.8370   14.5414   13.3558 H       1  UNL1        0.0000
     74 H           0.2722   14.8734   12.6224 H       1  UNL1        0.0000
     75 C           2.9822   11.5819   14.8274 C.ar    1  UNL1        0.0000
     76 C           2.4415   10.8799   13.7366 C.ar    1  UNL1        0.0000
     77 C           2.9468   11.0910   12.4591 C.ar    1  UNL1        0.0000
     78 H           2.5477   10.5185   11.6346 H       1  UNL1        0.0000
     79 C           3.9426   12.0120   12.1957 C.ar    1  UNL1        0.0000
     80 C           4.4207   12.7503   13.2625 C.ar    1  UNL1        0.0000
     81 H           5.1771   13.4998   13.0853 H       1  UNL1        0.0000
     82 C           3.9684   12.5446   14.5578 C.ar    1  UNL1        0.0000
     83 C           1.2925    9.8993   13.8326 C.3     1  UNL1        0.0000
     84 H           0.8629    9.9711   14.8370 H       1  UNL1        0.0000
     85 C           0.1845   10.2323   12.8266 C.3     1  UNL1        0.0000
     86 H          -0.0578   11.2888   12.8470 H       1  UNL1        0.0000
     87 H          -0.7179    9.6765   13.0711 H       1  UNL1        0.0000
     88 H           0.4762    9.9617   11.8144 H       1  UNL1        0.0000
     89 C           1.7403    8.4575   13.5779 C.3     1  UNL1        0.0000
     90 H           2.2422    8.3786   12.6156 H       1  UNL1        0.0000
     91 H           0.8734    7.7993   13.5680 H       1  UNL1        0.0000
     92 H           2.4182    8.1063   14.3468 H       1  UNL1        0.0000
     93 C           4.4627   12.2143   10.7944 C.3     1  UNL1        0.0000
     94 H           3.9468   11.5082   10.1332 H       1  UNL1        0.0000
     95 C           4.1584   13.6323   10.3063 C.3     1  UNL1        0.0000
     96 H           3.0903   13.8311   10.3660 H       1  UNL1        0.0000
     97 H           4.4786   13.7546    9.2736 H       1  UNL1        0.0000
     98 H           4.6770   14.3684   10.9155 H       1  UNL1        0.0000
     99 C           5.9628   11.9238   10.7227 C.3     1  UNL1        0.0000
    100 H           6.5219   12.6260   11.3361 H       1  UNL1        0.0000
    101 H           6.3164   12.0075    9.6970 H       1  UNL1        0.0000
    102 H           6.1699   10.9175   11.0810 H       1  UNL1        0.0000
    103 C           4.5796   13.4154   15.6291 C.3     1  UNL1        0.0000
    104 H           4.1296   13.1634   16.5882 H       1  UNL1        0.0000
    105 C           4.2729   14.8935   15.3791 C.3     1  UNL1        0.0000
    106 H           4.7184   15.5017   16.1636 H       1  UNL1        0.0000
    107 H           3.1968   15.0502   15.3967 H       1  UNL1        0.0000
    108 H           4.6613   15.2316   14.4208 H       1  UNL1        0.0000
    109 C           6.0859   13.1695   15.7298 C.3     1  UNL1        0.0000
    110 H           6.2809   12.1241   15.9581 H       1  UNL1        0.0000
    111 H           6.5171   13.7776   16.5220 H       1  UNL1        0.0000
    112 H           6.5911   13.4207   14.8000 H       1  UNL1        0.0000
    113 C           4.3261   10.8372   17.5224 C.ar    1  UNL1        0.0000
    114 C           4.8916   11.5413   18.5998 C.ar    1  UNL1        0.0000
    115 C           6.1115   11.1415   19.1277 C.ar    1  UNL1        0.0000
    116 H           6.5137   11.6803   19.9710 H       1  UNL1        0.0000
    117 C           6.8319   10.0797   18.6112 C.ar    1  UNL1        0.0000
    118 C           6.2732    9.3908   17.5519 C.ar    1  UNL1        0.0000
    119 H           6.8114    8.5516   17.1340 H       1  UNL1        0.0000
    120 C           5.0365    9.7379   17.0262 C.ar    1  UNL1        0.0000
    121 C           4.2366   12.7260   19.2715 C.3     1  UNL1        0.0000
    122 H           3.4514   13.1205   18.6227 H       1  UNL1        0.0000
    123 C           5.2091   13.8785   19.5387 C.3     1  UNL1        0.0000
    124 H           5.8662   13.6674   20.3797 H       1  UNL1        0.0000
    125 H           4.6469   14.7798   19.7754 H       1  UNL1        0.0000
    126 H           5.8210   14.0758   18.6625 H       1  UNL1        0.0000
    127 C           3.5726   12.2861   20.5774 C.3     1  UNL1        0.0000
    128 H           2.7353   11.6243   20.3627 H       1  UNL1        0.0000
    129 H           3.1955   13.1538   21.1155 H       1  UNL1        0.0000
    130 H           4.2797   11.7572   21.2140 H       1  UNL1        0.0000
    131 C           8.1698    9.6798   19.1816 C.3     1  UNL1        0.0000
    132 H           8.5391    8.8180   18.6132 H       1  UNL1        0.0000
    133 C           8.0331    9.2602   20.6464 C.3     1  UNL1        0.0000
    134 H           8.9873    8.9034   21.0295 H       1  UNL1        0.0000
    135 H           7.2993    8.4629   20.7428 H       1  UNL1        0.0000
    136 H           7.7096   10.0982   21.2589 H       1  UNL1        0.0000
    137 C           9.1824   10.8174   19.0336 C.3     1  UNL1        0.0000
    138 H           9.2736   11.1081   17.9890 H       1  UNL1        0.0000
    139 H          10.1603   10.5038   19.3941 H       1  UNL1        0.0000
    140 H           8.8690   11.6884   19.6039 H       1  UNL1        0.0000
    141 C           4.4968    8.8657   15.9234 C.3     1  UNL1        0.0000
    142 H           3.5025    9.2262   15.6633 H       1  UNL1        0.0000
    143 C           4.3447    7.4206   16.4034 C.3     1  UNL1        0.0000
    144 H           5.3061    6.9808   16.6555 H       1  UNL1        0.0000
    145 H           3.8851    6.8083   15.6294 H       1  UNL1        0.0000
    146 H           3.7103    7.3900   17.2874 H       1  UNL1        0.0000
    147 C           5.3681    8.9566   14.6706 C.3     1  UNL1        0.0000
    148 H           5.4127    9.9871   14.3241 H       1  UNL1        0.0000
    149 H           4.9498    8.3455   13.8736 H       1  UNL1        0.0000
    150 H           6.3802    8.6132   14.8715 H       1  UNL1        0.0000
@<TRIPOS>BOND
     1    97    95    1
     2   101    99    1
     3    63    61    1
     4    94    93    1
     5    95    96    1
     6    95    93    1
     7    95    98    1
     8    62    61    1
     9    99    93    1
    10    99   102    1
    11    99   100    1
    12    93    79    1
    13    61    64    1
    14    61    55    1
    15    59    57    1
    16    56    55    1
    17    78    77    1
    18    88    85    1
    19    55    57    1
    20    55    41    1
    21    57    58    1
    22    57    60    1
    23    79    77   ar
    24    79    80   ar
    25    77    76   ar
    26    43    42    1
    27    72    71    1
    28    90    89    1
    29    74    71    1
    30    85    86    1
    31    85    87    1
    32    85    83    1
    33    41    42   ar
    34    41    39   ar
    35    81    80    1
    36    71    73    1
    37    71    65    1
    38    80    82   ar
    39    42    44   ar
    40    91    89    1
    41    89    83    1
    42    89    92    1
    43    76    83    1
    44    76    75   ar
    45    40    39    1
    46    83    84    1
    47   149   147    1
    48    39    38   ar
    49   148   147    1
    50    44    65    1
    51    44    37   ar
    52   108   105    1
    53    65    66    1
    54    65    67    1
    55    52    51    1
    56    82    75   ar
    57    82   103    1
    58   147   150    1
    59   147   141    1
    60   112   109    1
    61    68    67    1
    62    75     3    1
    63    54    51    1
    64    17    15    1
    65    38    37   ar
    66    38    45    1
    67    69    67    1
    68    67    70    1
    69    51    53    1
    70    51    45    1
    71   105   107    1
    72   105   103    1
    73   105   106    1
    74    37     2    1
    75   103   109    1
    76   103   104    1
    77   145   143    1
    78   142   141    1
    79   109   110    1
    80   109   111    1
    81   141   143    1
    82   141   120    1
    83    50    47    1
    84    16    15    1
    85    15    18    1
    86    15     9    1
    87    45    47    1
    88    45    46    1
    89    10     9    1
    90    13    11    1
    91   143   144    1
    92   143   146    1
    93    47    49    1
    94    47    48    1
    95     3   113    1
    96     3     1    1
    97     9    11    1
    98     9     4    1
    99   120   113   ar
   100   120   118   ar
   101     2     1    1
   102     2     6    1
   103    11    14    1
   104    11    12    1
   105   119   118    1
   106   113   114   ar
   107   118   117   ar
   108     4     6    1
   109     4     7    1
   110   138   137    1
   111     6     5    1
   112    20    19    1
   113   114   115   ar
   114   114   121    1
   115   117   115   ar
   116   117   131    1
   117   132   131    1
   118   122   121    1
   119   126   123    1
   120    21    19    1
   121   137   131    1
   122   137   139    1
   123   137   140    1
   124     7    19    1
   125     7     8    2
   126    19    22    1
   127   115   116    1
   128   131   133    1
   129   121   123    1
   130   121   127    1
   131   123   125    1
   132   123   124    1
   133     5     8    1
   134     5    27    1
   135    28    27    1
   136    30    29    1
   137     8    23    1
   138   128   127    1
   139    27    29    1
   140    27    33    1
   141   127   129    1
   142   127   130    1
   143   133   135    1
   144   133   134    1
   145   133   136    1
   146    29    32    1
   147    29    31    1
   148    36    33    1
   149    23    24    1
   150    23    26    1
   151    23    25    1
   152    33    35    1
   153    33    34    1
