@<TRIPOS>MOLECULE
2,3,4
 104 106 0 0 0
SMALL
GASTEIGER

@<TRIPOS>ATOM
      1 CL         -0.2075   13.9620    5.3227 Cl      1  UNL1        0.0000
      2 P           5.7773   16.0137    5.5346 P.3     1  UNL1        0.0000
      3 SI          7.0555   16.1264    2.5064 Si      1  UNL1        0.0000
      4 SI          7.2770   13.1072    4.9265 Si      1  UNL1        0.0000
      5 SI          1.0822   15.4925    4.8727 Si      1  UNL1        0.0000
      6 C           7.0168   17.8868    3.3826 C.3     1  UNL1        0.0000
      7 H           7.7610   17.8105    4.1710 H       1  UNL1        0.0000
      8 H           7.3604   18.6316    2.6675 H       1  UNL1        0.0000
      9 C           5.7428   18.3363    3.9792 C.ar    1  UNL1        0.0000
     10 C           5.1166   19.4890    3.5117 C.ar    1  UNL1        0.0000
     11 H           5.5455   20.0094    2.6669 H       1  UNL1        0.0000
     12 C           3.9778   19.9912    4.1120 C.ar    1  UNL1        0.0000
     13 H           3.5198   20.8923    3.7318 H       1  UNL1        0.0000
     14 C           3.4387   19.3484    5.2139 C.ar    1  UNL1        0.0000
     15 H           2.5734   19.7586    5.7135 H       1  UNL1        0.0000
     16 C           4.0161   18.1778    5.6693 C.ar    1  UNL1        0.0000
     17 H           3.5878   17.6644    6.5188 H       1  UNL1        0.0000
     18 C           5.1567   17.6590    5.0626 C.ar    1  UNL1        0.0000
     19 C           6.2796   16.4590    0.7452 C.3     1  UNL1        0.0000
     20 H           6.7591   17.3600    0.3479 H       1  UNL1        0.0000
     21 C           4.7826   16.7331    0.8283 C.3     1  UNL1        0.0000
     22 H           4.2607   15.8487    1.1845 H       1  UNL1        0.0000
     23 H           4.3806   16.9827   -0.1533 H       1  UNL1        0.0000
     24 H           4.5744   17.5605    1.5031 H       1  UNL1        0.0000
     25 C           6.5429   15.3153   -0.2260 C.3     1  UNL1        0.0000
     26 H           7.6063   15.1155   -0.3217 H       1  UNL1        0.0000
     27 H           6.1463   15.5515   -1.2132 H       1  UNL1        0.0000
     28 H           6.0622   14.4070    0.1233 H       1  UNL1        0.0000
     29 C           8.9815   15.8998    2.2370 C.3     1  UNL1        0.0000
     30 H           9.1427   14.8946    1.8430 H       1  UNL1        0.0000
     31 C           9.5494   16.8845    1.2174 C.3     1  UNL1        0.0000
     32 H           9.0849   16.7645    0.2441 H       1  UNL1        0.0000
     33 H          10.6206   16.7221    1.1014 H       1  UNL1        0.0000
     34 H           9.4018   17.9098    1.5468 H       1  UNL1        0.0000
     35 C           9.7633   16.0319    3.5416 C.3     1  UNL1        0.0000
     36 H           9.8127   17.0730    3.8498 H       1  UNL1        0.0000
     37 H          10.7849   15.6782    3.4131 H       1  UNL1        0.0000
     38 H           9.2935   15.4655    4.3395 H       1  UNL1        0.0000
     39 C           7.6545   13.8384    6.7100 C.3     1  UNL1        0.0000
     40 H           6.7105   13.7644    7.2495 H       1  UNL1        0.0000
     41 H           8.3668   13.1806    7.2009 H       1  UNL1        0.0000
     42 C           8.1394   15.2345    6.7977 C.ar    1  UNL1        0.0000
     43 C           7.3323   16.3220    6.4254 C.ar    1  UNL1        0.0000
     44 C           7.7800   17.6239    6.6313 C.ar    1  UNL1        0.0000
     45 H           7.1311   18.4526    6.3827 H       1  UNL1        0.0000
     46 C           9.0303   17.8683    7.1677 C.ar    1  UNL1        0.0000
     47 H           9.3627   18.8831    7.3269 H       1  UNL1        0.0000
     48 C           9.8505   16.8017    7.4943 C.ar    1  UNL1        0.0000
     49 H          10.8346   16.9796    7.9014 H       1  UNL1        0.0000
     50 C           9.3995   15.5062    7.3223 C.ar    1  UNL1        0.0000
     51 H          10.0347   14.6821    7.6149 H       1  UNL1        0.0000
     52 C           6.3020   11.4623    5.3563 C.3     1  UNL1        0.0000
     53 H           6.2928   10.8566    4.4476 H       1  UNL1        0.0000
     54 C           4.8466   11.7235    5.7298 C.3     1  UNL1        0.0000
     55 H           4.7679   12.3812    6.5942 H       1  UNL1        0.0000
     56 H           4.3377   10.7901    5.9697 H       1  UNL1        0.0000
     57 H           4.3240   12.1783    4.8923 H       1  UNL1        0.0000
     58 C           6.9753   10.6452    6.4565 C.3     1  UNL1        0.0000
     59 H           8.0130   10.4332    6.2134 H       1  UNL1        0.0000
     60 H           6.4593    9.6937    6.5854 H       1  UNL1        0.0000
     61 H           6.9430   11.1739    7.4062 H       1  UNL1        0.0000
     62 C           8.9311   12.5929    4.0224 C.3     1  UNL1        0.0000
     63 H           9.1990   13.3944    3.3365 H       1  UNL1        0.0000
     64 C           8.7300   11.3407    3.1755 C.3     1  UNL1        0.0000
     65 H           8.5415   10.4690    3.7962 H       1  UNL1        0.0000
     66 H           9.6191   11.1415    2.5786 H       1  UNL1        0.0000
     67 H           7.8906   11.4743    2.4996 H       1  UNL1        0.0000
     68 C          10.1003   12.4127    4.9852 C.3     1  UNL1        0.0000
     69 H          10.3091   13.3409    5.5086 H       1  UNL1        0.0000
     70 H          10.9954   12.1244    4.4353 H       1  UNL1        0.0000
     71 H           9.8959   11.6368    5.7187 H       1  UNL1        0.0000
     72 C           2.8714   14.8419    5.1588 C.3     1  UNL1        0.0000
     73 H           2.8588   13.8051    4.8107 H       1  UNL1        0.0000
     74 H           3.5392   15.4062    4.4982 H       1  UNL1        0.0000
     75 C           3.4085   14.8678    6.5519 C.ar    1  UNL1        0.0000
     76 C           4.6340   15.4730    6.8613 C.ar    1  UNL1        0.0000
     77 C           5.0547   15.5285    8.1897 C.ar    1  UNL1        0.0000
     78 H           5.9878   16.0197    8.4270 H       1  UNL1        0.0000
     79 C           4.3022   14.9598    9.1989 C.ar    1  UNL1        0.0000
     80 H           4.6428   15.0136   10.2220 H       1  UNL1        0.0000
     81 C           3.1243   14.3005    8.8853 C.ar    1  UNL1        0.0000
     82 H           2.5454   13.8225    9.6609 H       1  UNL1        0.0000
     83 C           2.6839   14.2651    7.5761 C.ar    1  UNL1        0.0000
     84 H           1.7606   13.7619    7.3339 H       1  UNL1        0.0000
     85 C           0.5236   17.0226    5.8907 C.3     1  UNL1        0.0000
     86 H           1.1924   17.8548    5.6588 H       1  UNL1        0.0000
     87 C          -0.8913   17.4394    5.4825 C.3     1  UNL1        0.0000
     88 H          -0.9450   17.6738    4.4225 H       1  UNL1        0.0000
     89 H          -1.1999   18.3219    6.0410 H       1  UNL1        0.0000
     90 H          -1.6006   16.6424    5.6936 H       1  UNL1        0.0000
     91 C           0.5656   16.7996    7.4014 C.3     1  UNL1        0.0000
     92 H          -0.0617   15.9566    7.6817 H       1  UNL1        0.0000
     93 H           0.1959   17.6825    7.9212 H       1  UNL1        0.0000
     94 H           1.5769   16.6019    7.7462 H       1  UNL1        0.0000
     95 C           0.9272   15.8598    2.9943 C.3     1  UNL1        0.0000
     96 H          -0.1349   15.9801    2.7537 H       1  UNL1        0.0000
     97 C           1.4471   14.7036    2.1393 C.3     1  UNL1        0.0000
     98 H           2.5128   14.5493    2.2855 H       1  UNL1        0.0000
     99 H           1.2846   14.9100    1.0826 H       1  UNL1        0.0000
    100 H           0.9327   13.7775    2.3865 H       1  UNL1        0.0000
    101 C           1.6356   17.1614    2.6175 C.3     1  UNL1        0.0000
    102 H           1.1822   18.0135    3.1179 H       1  UNL1        0.0000
    103 H           1.5780   17.3271    1.5433 H       1  UNL1        0.0000
    104 H           2.6860   17.1312    2.8961 H       1  UNL1        0.0000
@<TRIPOS>BOND
     1    27    25    1
     2    26    25    1
     3    25    28    1
     4    25    19    1
     5    23    21    1
     6    32    31    1
     7    20    19    1
     8    19    21    1
     9    19     3    1
    10    21    22    1
    11    21    24    1
    12    99    97    1
    13    33    31    1
    14    31    34    1
    15    31    29    1
    16   103   101    1
    17    30    29    1
    18    97    98    1
    19    97   100    1
    20    97    95    1
    21    29     3    1
    22    29    35    1
    23    67    64    1
    24     3     6    1
    25    66    64    1
    26   101   104    1
    27   101    95    1
    28   101   102    1
    29    11    10    1
    30     8     6    1
    31    96    95    1
    32    95     5    1
    33    64    65    1
    34    64    62    1
    35    63    62    1
    36     6     9    1
    37     6     7    1
    38    37    35    1
    39    10     9   ar
    40    10    12   ar
    41    35    36    1
    42    35    38    1
    43    13    12    1
    44     9    18   ar
    45    62     4    1
    46    62    68    1
    47    12    14   ar
    48    88    87    1
    49    70    68    1
    50    53    52    1
    51    74    72    1
    52    73    72    1
    53     5    72    1
    54     5     1    1
    55     5    85    1
    56    57    54    1
    57     4    52    1
    58     4    39    1
    59    68    69    1
    60    68    71    1
    61    18     2    1
    62    18    16   ar
    63    72    75    1
    64    14    16   ar
    65    14    15    1
    66    52    54    1
    67    52    58    1
    68    87    90    1
    69    87    85    1
    70    87    89    1
    71     2    43    1
    72     2    76    1
    73    86    85    1
    74    16    17    1
    75    54    56    1
    76    54    55    1
    77    85    91    1
    78    59    58    1
    79    45    44    1
    80    43    44   ar
    81    43    42   ar
    82    58    60    1
    83    58    61    1
    84    75    76   ar
    85    75    83   ar
    86    44    46   ar
    87    39    42    1
    88    39    41    1
    89    39    40    1
    90    42    50   ar
    91    76    77   ar
    92    46    47    1
    93    46    48   ar
    94    50    48   ar
    95    50    51    1
    96    84    83    1
    97    91    92    1
    98    91    94    1
    99    91    93    1
   100    48    49    1
   101    83    81   ar
   102    77    78    1
   103    77    79   ar
   104    81    79   ar
   105    81    82    1
   106    79    80    1
