@<TRIPOS>MOLECULE
2,3,4,13,20,21,23,33,35,37,39,41
 54 61 0 0 0
SMALL
GASTEIGER

@<TRIPOS>ATOM
      1 SI          2.1489   11.0187    4.8601 Si      1  UNL1        0.0000
      2 N           4.2526    6.7738    4.6063 N.3     1  UNL1        0.0000
      3 C           1.3246    9.3144    4.8233 C.3     1  UNL1        0.0000
      4 C           2.0446    6.6669    5.4253 C.3     1  UNL1        0.0000
      5 C           2.8880   11.6198    6.5220 C.3     1  UNL1        0.0000
      6 H           3.6463   10.9455    6.9038 H       1  UNL1        0.0000
      7 H           2.1117   11.6971    7.2756 H       1  UNL1        0.0000
      8 H           3.3418   12.5996    6.4152 H       1  UNL1        0.0000
      9 C           1.0918   12.4696    4.1952 C.3     1  UNL1        0.0000
     10 H           1.7123   13.2188    3.7148 H       1  UNL1        0.0000
     11 H           0.5638   12.9542    5.0094 H       1  UNL1        0.0000
     12 H           0.3483   12.1402    3.4790 H       1  UNL1        0.0000
     13 C           3.4514    6.1492    5.6608 C.3     1  UNL1        0.0000
     14 H           3.8399    6.4246    6.6661 H       1  UNL1        0.0000
     15 H           3.5137    5.0401    5.5950 H       1  UNL1        0.0000
     16 C           5.6472    6.4352    4.7800 C.3     1  UNL1        0.0000
     17 H           5.7803    5.3406    4.8742 H       1  UNL1        0.0000
     18 H           6.0708    6.8831    5.7002 H       1  UNL1        0.0000
     19 H           6.2496    6.7697    3.9321 H       1  UNL1        0.0000
     20 C           3.5294   10.4296    3.6963 C.2     1  UNL1        0.0000
     21 C           4.6995    9.7365    4.1146 C.3     1  UNL1        0.0000
     22 H           5.1034    9.7618    5.1229 H       1  UNL1        0.0000
     23 C           5.3563    9.1722    3.0091 C.2     1  UNL1        0.0000
     24 H           6.3479    8.7430    3.0061 H       1  UNL1        0.0000
     25 C           4.8634    9.3167    0.4791 C.ar    1  UNL1        0.0000
     26 H           5.7437    8.7747    0.1565 H       1  UNL1        0.0000
     27 C           3.9982    9.8584   -0.4390 C.ar    1  UNL1        0.0000
     28 H           4.1882    9.7376   -1.4958 H       1  UNL1        0.0000
     29 C           2.8828   10.6106   -0.0287 C.ar    1  UNL1        0.0000
     30 H           2.2469   11.0510   -0.7830 H       1  UNL1        0.0000
     31 C           2.6080   10.8158    1.3022 C.ar    1  UNL1        0.0000
     32 H           1.7826   11.4484    1.5949 H       1  UNL1        0.0000
     33 C           3.4542   10.2584    2.2795 C.ar    1  UNL1        0.0000
     34 C           4.6097    9.4964    1.8495 C.ar    1  UNL1        0.0000
     35 B           1.9328    8.2716    5.8635 B       1  UNL1        0.0000
     36 H           2.7617    8.6863    6.6154 H       1  UNL1        0.0000
     37 B           1.4152    6.1448    3.9893 B       1  UNL1        0.0000
     38 H           2.0171    5.2488    3.4574 H       1  UNL1        0.0000
     39 B           0.4788    7.2952    3.0766 B       1  UNL1        0.0000
     40 H           0.1978    7.0916    1.9280 H       1  UNL1        0.0000
     41 B           0.6305    8.9083    3.5006 B       1  UNL1        0.0000
     42 H           0.3464    9.7675    2.7237 H       1  UNL1        0.0000
     43 B           0.8922    7.0871    6.6141 B       1  UNL1        0.0000
     44 H           1.0718    6.8762    7.7590 H       1  UNL1        0.0000
     45 B           0.6354    5.7330    5.5579 B       1  UNL1        0.0000
     46 H           0.6887    4.6466    6.0109 H       1  UNL1        0.0000
     47 B          -0.3484    6.1615    4.1597 B       1  UNL1        0.0000
     48 H          -1.0712    5.3504    3.6996 H       1  UNL1        0.0000
     49 B          -0.7686    7.8708    4.2559 B       1  UNL1        0.0000
     50 H          -1.8025    8.3341    3.9287 H       1  UNL1        0.0000
     51 B           0.1174    8.6042    5.8421 B       1  UNL1        0.0000
     52 B          -0.6433    7.0066    5.7395 B       1  UNL1        0.0000
     53 H          -1.6252    6.8135    6.3630 H       1  UNL1        0.0000
     54 H          -0.4036    9.4125    6.5246 H       1  UNL1        0.0000
@<TRIPOS>BOND
     1    28    27    1
     2    30    29    1
     3    27    29   ar
     4    27    25   ar
     5    29    31   ar
     6    26    25    1
     7    25    34   ar
     8    31    32    1
     9    31    33   ar
    10    34    33   ar
    11    34    23    2
    12    40    39    1
    13    33    20    2
    14    42    41    1
    15    24    23    1
    16    23    21    1
    17    39    41    1
    18    39    37    1
    19    38    37    1
    20    12     9    1
    21    41    49    1
    22    41     3    1
    23    20    21    1
    24    20     1    1
    25    48    47    1
    26    10     9    1
    27    50    49    1
    28    19    16    1
    29    37    47    1
    30    37     4    1
    31    21    22    1
    32    47    49    1
    33    47    45    1
    34     9     1    1
    35     9    11    1
    36    49    52    1
    37     2    16    1
    38     2    13    1
    39    16    17    1
    40    16    18    1
    41     3     1    1
    42     3    51    1
    43     3    35    1
    44     1     5    1
    45     4    45    1
    46     4    13    1
    47     4    35    1
    48    45    46    1
    49    45    43    1
    50    15    13    1
    51    13    14    1
    52    52    51    1
    53    52    53    1
    54    52    43    1
    55    51    54    1
    56    35    43    1
    57    35    36    1
    58     8     5    1
    59     5     6    1
    60     5     7    1
    61    43    44    1
