@<TRIPOS>MOLECULE
1,2
 52 52 0 0 0
SMALL
GASTEIGER

@<TRIPOS>ATOM
      1 B           7.3314    7.4331    4.2580 B       1  UNL1        0.0000
      2 B           7.6254    5.7712    4.0435 B       1  UNL1        0.0000
      3 N           6.6531    8.4595    3.6293 N.3     1  UNL1        0.0000
      4 SI          7.4070    9.0865    2.1392 Si      1  UNL1        0.0000
      5 C           6.1193    9.9844    1.0628 C.3     1  UNL1        0.0000
      6 H           5.3257    9.3177    0.7430 H       1  UNL1        0.0000
      7 H           6.6045   10.3628    0.1689 H       1  UNL1        0.0000
      8 H           5.6605   10.8276    1.5652 H       1  UNL1        0.0000
      9 C           8.8366   10.2318    2.6576 C.3     1  UNL1        0.0000
     10 H           8.4883   11.1420    3.1351 H       1  UNL1        0.0000
     11 H           9.4448   10.5189    1.8055 H       1  UNL1        0.0000
     12 H           9.4808    9.7168    3.3662 H       1  UNL1        0.0000
     13 C           8.0909    7.6178    1.1445 C.3     1  UNL1        0.0000
     14 H           8.9391    7.1756    1.6569 H       1  UNL1        0.0000
     15 H           8.4258    7.9388    0.1630 H       1  UNL1        0.0000
     16 H           7.3503    6.8365    1.0019 H       1  UNL1        0.0000
     17 SI          5.3322    9.3382    4.4204 Si      1  UNL1        0.0000
     18 C           5.0344    8.6441    6.1681 C.3     1  UNL1        0.0000
     19 H           4.5966    7.6515    6.1643 H       1  UNL1        0.0000
     20 H           4.3573    9.2919    6.7171 H       1  UNL1        0.0000
     21 H           5.9649    8.5978    6.7247 H       1  UNL1        0.0000
     22 C           3.7442    9.1469    3.3755 C.3     1  UNL1        0.0000
     23 H           3.5283   10.0518    2.8179 H       1  UNL1        0.0000
     24 H           2.8862    8.9483    4.0102 H       1  UNL1        0.0000
     25 H           3.8231    8.3345    2.6604 H       1  UNL1        0.0000
     26 C           5.8323   11.1633    4.6331 C.3     1  UNL1        0.0000
     27 H           6.7418   11.2403    5.2215 H       1  UNL1        0.0000
     28 H           5.0561   11.7140    5.1563 H       1  UNL1        0.0000
     29 H           6.0081   11.6638    3.6868 H       1  UNL1        0.0000
     30 C           6.8709    4.8736    3.0374 C.ar    1  UNL1        0.0000
     31 C           7.5931    4.1614    2.0551 C.ar    1  UNL1        0.0000
     32 C           6.9375    3.3313    1.1474 C.ar    1  UNL1        0.0000
     33 C           5.5584    3.2088    1.2125 C.ar    1  UNL1        0.0000
     34 H           5.0499    2.5692    0.5033 H       1  UNL1        0.0000
     35 C           4.8161    3.8850    2.1676 C.ar    1  UNL1        0.0000
     36 C           5.4701    4.7130    3.0785 C.ar    1  UNL1        0.0000
     37 C           9.0856    4.2728    1.9608 C.3     1  UNL1        0.0000
     38 H           9.5487    3.3016    2.1364 H       1  UNL1        0.0000
     39 H           9.4665    4.9762    2.6950 H       1  UNL1        0.0000
     40 H           9.3838    4.6039    0.9664 H       1  UNL1        0.0000
     41 C           7.7007    2.5745    0.1014 C.3     1  UNL1        0.0000
     42 H           7.0270    1.9704   -0.5019 H       1  UNL1        0.0000
     43 H           8.4375    1.9162    0.5609 H       1  UNL1        0.0000
     44 H           8.2350    3.2580   -0.5587 H       1  UNL1        0.0000
     45 C           3.3256    3.7168    2.2050 C.3     1  UNL1        0.0000
     46 H           3.0057    3.3031    3.1616 H       1  UNL1        0.0000
     47 H           2.9974    3.0457    1.4146 H       1  UNL1        0.0000
     48 H           2.8215    4.6746    2.0741 H       1  UNL1        0.0000
     49 C           4.6386    5.4233    4.1059 C.3     1  UNL1        0.0000
     50 H           3.9027    6.0686    3.6260 H       1  UNL1        0.0000
     51 H           5.2613    6.0357    4.7509 H       1  UNL1        0.0000
     52 H           4.0922    4.7014    4.7149 H       1  UNL1        0.0000
@<TRIPOS>BOND
     1    44    41    1
     2    42    41    1
     3    41    43    1
     4    41    32    1
     5    15    13    1
     6     7     5    1
     7    34    33    1
     8     6     5    1
     9    40    37    1
    10    16    13    1
    11     5     8    1
    12     5     4    1
    13    13    14    1
    14    13     4    1
    15    32    33   ar
    16    32    31   ar
    17    33    35   ar
    18    47    45    1
    19    11     9    1
    20    37    31    1
    21    37    38    1
    22    37    39    1
    23    31    30   ar
    24    48    45    1
    25     4     9    1
    26     4     3    1
    27    35    45    1
    28    35    36   ar
    29    45    46    1
    30     9    10    1
    31     9    12    1
    32    25    22    1
    33    23    22    1
    34    30    36   ar
    35    30     2    1
    36    36    49    1
    37    22    24    1
    38    22    17    1
    39    50    49    1
    40     3     1    1
    41     3    17    1
    42    29    26    1
    43     2     1    2
    44    49    52    1
    45    49    51    1
    46    17    26    1
    47    17    18    1
    48    26    28    1
    49    26    27    1
    50    19    18    1
    51    18    20    1
    52    18    21    1
