@<TRIPOS>MOLECULE
1,25
 52 52 0 0 0
SMALL
GASTEIGER

@<TRIPOS>ATOM
      1 B           1.3597    6.6942   12.8103 B       1  UNL1        0.0000
      2 C           1.7029    6.0034   14.1394 C.ar    1  UNL1        0.0000
      3 C           3.0194    6.0319   14.6437 C.ar    1  UNL1        0.0000
      4 C           3.3535    5.3187   15.7934 C.ar    1  UNL1        0.0000
      5 C           2.3630    4.6151   16.4628 C.ar    1  UNL1        0.0000
      6 H           2.6221    4.0636   17.3563 H       1  UNL1        0.0000
      7 C           1.0464    4.6132   16.0270 C.ar    1  UNL1        0.0000
      8 C           0.7156    5.3012   14.8609 C.ar    1  UNL1        0.0000
      9 C           4.0793    6.8213   13.9346 C.3     1  UNL1        0.0000
     10 H           4.7100    7.3482   14.6488 H       1  UNL1        0.0000
     11 H           3.6290    7.5467   13.2609 H       1  UNL1        0.0000
     12 H           4.7171    6.1587   13.3470 H       1  UNL1        0.0000
     13 C           4.7604    5.2980   16.3142 C.3     1  UNL1        0.0000
     14 H           5.4593    4.9976   15.5345 H       1  UNL1        0.0000
     15 H           4.8483    4.6021   17.1451 H       1  UNL1        0.0000
     16 H           5.0564    6.2865   16.6662 H       1  UNL1        0.0000
     17 C           0.0042    3.8709   16.8085 C.3     1  UNL1        0.0000
     18 H           0.4352    3.4422   17.7100 H       1  UNL1        0.0000
     19 H          -0.4234    3.0625   16.2148 H       1  UNL1        0.0000
     20 H          -0.8085    4.5368   17.0956 H       1  UNL1        0.0000
     21 C          -0.7142    5.3146   14.4067 C.3     1  UNL1        0.0000
     22 H          -1.3172    5.9029   15.0997 H       1  UNL1        0.0000
     23 H          -1.1315    4.3081   14.3863 H       1  UNL1        0.0000
     24 H          -0.8059    5.7586   13.4184 H       1  UNL1        0.0000
     25 B           2.0370    6.1604   11.3128 B       1  UNL1        0.0000
     26 N           2.9212    5.1899   10.9201 N.3     1  UNL1        0.0000
     27 SI          2.5010    3.4807   11.2175 Si      1  UNL1        0.0000
     28 C           0.6221    3.3806   11.4921 C.3     1  UNL1        0.0000
     29 H           0.3660    3.6050   12.5214 H       1  UNL1        0.0000
     30 H           0.2445    2.3870   11.2704 H       1  UNL1        0.0000
     31 H           0.0896    4.0892   10.8624 H       1  UNL1        0.0000
     32 C           3.4312    2.9004   12.7762 C.3     1  UNL1        0.0000
     33 H           4.5077    2.9038   12.6402 H       1  UNL1        0.0000
     34 H           3.1393    1.8865   13.0319 H       1  UNL1        0.0000
     35 H           3.2036    3.5301   13.6315 H       1  UNL1        0.0000
     36 C           2.9457    2.4113    9.7068 C.3     1  UNL1        0.0000
     37 H           2.3961    2.7212    8.8236 H       1  UNL1        0.0000
     38 H           2.6836    1.3766    9.9056 H       1  UNL1        0.0000
     39 H           4.0031    2.4367    9.4682 H       1  UNL1        0.0000
     40 SI          4.3965    5.6782   10.0341 Si      1  UNL1        0.0000
     41 C           4.0885    5.4054    8.1748 C.3     1  UNL1        0.0000
     42 H           4.0353    4.3566    7.9032 H       1  UNL1        0.0000
     43 H           4.8866    5.8525    7.5896 H       1  UNL1        0.0000
     44 H           3.1579    5.8735    7.8667 H       1  UNL1        0.0000
     45 C           4.7393    7.5238   10.3383 C.3     1  UNL1        0.0000
     46 H           3.8192    8.1022   10.2919 H       1  UNL1        0.0000
     47 H           5.4130    7.9127    9.5811 H       1  UNL1        0.0000
     48 H           5.1964    7.7126   11.3043 H       1  UNL1        0.0000
     49 C           5.8725    4.6543   10.6696 C.3     1  UNL1        0.0000
     50 H           6.0431    4.7955   11.7325 H       1  UNL1        0.0000
     51 H           6.7761    4.9632   10.1541 H       1  UNL1        0.0000
     52 H           5.7459    3.5917   10.4949 H       1  UNL1        0.0000
@<TRIPOS>BOND
     1    43    41    1
     2    44    41    1
     3    42    41    1
     4    41    40    1
     5    37    36    1
     6    39    36    1
     7    47    45    1
     8    36    38    1
     9    36    27    1
    10    40    45    1
    11    40    49    1
    12    40    26    1
    13    51    49    1
    14    46    45    1
    15    45    48    1
    16    52    49    1
    17    49    50    1
    18    31    28    1
    19    26    27    1
    20    26    25    1
    21    27    28    1
    22    27    32    1
    23    30    28    1
    24    25     1    2
    25    28    29    1
    26    33    32    1
    27    32    34    1
    28    32    35    1
    29     1     2    1
    30    11     9    1
    31    12     9    1
    32    24    21    1
    33     9     3    1
    34     9    10    1
    35     2     3   ar
    36     2     8   ar
    37    23    21    1
    38    21     8    1
    39    21    22    1
    40     3     4   ar
    41     8     7   ar
    42    14    13    1
    43     4    13    1
    44     4     5   ar
    45     7     5   ar
    46     7    17    1
    47    19    17    1
    48    13    16    1
    49    13    15    1
    50     5     6    1
    51    17    20    1
    52    17    18    1
