@<TRIPOS>MOLECULE
1,2,6,7
 77 79 0 0 0
SMALL
GASTEIGER

@<TRIPOS>ATOM
      1 S           9.3876    4.8814    9.8308 S.3     1  UNL1        0.0000
      2 N           5.6892    2.3473    9.0391 N.pl3   1  UNL1        0.0000
      3 C           5.6199    1.5848   10.2183 C.ar    1  UNL1        0.0000
      4 SI          7.3574    8.7923    9.3142 Si      1  UNL1        0.0000
      5 C           5.4055    2.1932   11.4740 C.ar    1  UNL1        0.0000
      6 N           5.5027    4.8109    7.9685 N.pl3   1  UNL1        0.0000
      7 N           7.8697    5.7985    7.5167 N.pl3   1  UNL1        0.0000
      8 C           5.3570    1.4129   12.6198 C.ar    1  UNL1        0.0000
      9 H           5.1959    1.8820   13.5800 H       1  UNL1        0.0000
     10 C           5.5130    0.0414   12.5593 C.ar    1  UNL1        0.0000
     11 H           5.4606   -0.5529   13.4600 H       1  UNL1        0.0000
     12 C           5.7486   -0.5593   11.3375 C.ar    1  UNL1        0.0000
     13 H           5.8835   -1.6306   11.2944 H       1  UNL1        0.0000
     14 C           5.8040    0.1857   10.1705 C.ar    1  UNL1        0.0000
     15 C           5.3116    3.6980   11.6015 C.3     1  UNL1        0.0000
     16 H           5.2539    4.1284   10.5947 H       1  UNL1        0.0000
     17 C           6.5847    4.2285   12.2692 C.3     1  UNL1        0.0000
     18 H           7.4491    4.0481   11.6280 H       1  UNL1        0.0000
     19 H           6.7517    3.7354   13.2251 H       1  UNL1        0.0000
     20 H           6.5037    5.2988   12.4442 H       1  UNL1        0.0000
     21 C           4.0773    4.1491   12.3857 C.3     1  UNL1        0.0000
     22 H           3.1699    3.7100   11.9756 H       1  UNL1        0.0000
     23 H           3.9840    5.2329   12.3411 H       1  UNL1        0.0000
     24 H           4.1506    3.8598   13.4311 H       1  UNL1        0.0000
     25 C           6.0809   -0.5063    8.8559 C.3     1  UNL1        0.0000
     26 H           6.0877    0.2634    8.0780 H       1  UNL1        0.0000
     27 C           5.0005   -1.5380    8.5228 C.3     1  UNL1        0.0000
     28 H           4.0134   -1.0796    8.5157 H       1  UNL1        0.0000
     29 H           4.9926   -2.3436    9.2536 H       1  UNL1        0.0000
     30 H           5.1849   -1.9711    7.5412 H       1  UNL1        0.0000
     31 C           7.4623   -1.1641    8.8688 C.3     1  UNL1        0.0000
     32 H           8.2226   -0.4114    9.0627 H       1  UNL1        0.0000
     33 H           7.6672   -1.6242    7.9040 H       1  UNL1        0.0000
     34 H           7.5234   -1.9333    9.6359 H       1  UNL1        0.0000
     35 C           4.4368    2.6944    8.3760 C.3     1  UNL1        0.0000
     36 C           4.4295    2.1858    6.9067 C.3     1  UNL1        0.0000
     37 H           5.3358    2.5127    6.3935 H       1  UNL1        0.0000
     38 H           3.5624    2.5801    6.3778 H       1  UNL1        0.0000
     39 H           4.3814    1.1004    6.8925 H       1  UNL1        0.0000
     40 C           3.2020    2.1126    9.0763 C.3     1  UNL1        0.0000
     41 H           3.0490    2.5727   10.0481 H       1  UNL1        0.0000
     42 H           3.3474    1.0467    9.2291 H       1  UNL1        0.0000
     43 H           2.3128    2.2521    8.4658 H       1  UNL1        0.0000
     44 C           4.3471    4.2178    8.2458 C.3     1  UNL1        0.0000
     45 C           3.1723    4.9547    8.3733 C.2     1  UNL1        0.0000
     46 H           2.2348    4.4751    8.5973 H       1  UNL1        0.0000
     47 C           3.2325    6.3317    8.2295 C.2     1  UNL1        0.0000
     48 H           2.3410    6.9299    8.3528 H       1  UNL1        0.0000
     49 C           4.4377    6.9367    7.9242 C.2     1  UNL1        0.0000
     50 H           4.4894    8.0059    7.8065 H       1  UNL1        0.0000
     51 C           5.5724    6.1349    7.7912 C.2     1  UNL1        0.0000
     52 C           6.9219    6.6683    7.5358 C.3     1  UNL1        0.0000
     53 C           7.1203    8.1324    7.4987 C.3     1  UNL1        0.0000
     54 H           6.2905    8.6329    7.0089 H       1  UNL1        0.0000
     55 H           8.0266    8.3737    6.9511 H       1  UNL1        0.0000
     56 C           9.2119    9.1403    9.5573 C.3     1  UNL1        0.0000
     57 H           9.3970    9.6272   10.5098 H       1  UNL1        0.0000
     58 H           9.6131    9.7808    8.7767 H       1  UNL1        0.0000
     59 H           9.7813    8.2153    9.5469 H       1  UNL1        0.0000
     60 C           6.7582    7.5035   10.5756 C.3     1  UNL1        0.0000
     61 H           6.9132    7.8537   11.5921 H       1  UNL1        0.0000
     62 H           7.3227    6.5800   10.4599 H       1  UNL1        0.0000
     63 H           5.7035    7.2654   10.4645 H       1  UNL1        0.0000
     64 C           6.3310   10.3976    9.4420 C.3     1  UNL1        0.0000
     65 H           6.4958   10.8759   10.4015 H       1  UNL1        0.0000
     66 H           5.2651   10.2103    9.3530 H       1  UNL1        0.0000
     67 H           6.6068   11.1108    8.6715 H       1  UNL1        0.0000
     68 C           9.2174    6.1336    7.4054 C.ar    1  UNL1        0.0000
     69 C           9.7624    6.7848    6.3041 C.ar    1  UNL1        0.0000
     70 H           9.1193    7.0535    5.4773 H       1  UNL1        0.0000
     71 C          11.1202    7.0368    6.2420 C.ar    1  UNL1        0.0000
     72 H          11.5340    7.5336    5.3771 H       1  UNL1        0.0000
     73 C          11.9473    6.6481    7.2860 C.ar    1  UNL1        0.0000
     74 H          13.0063    6.8559    7.2425 H       1  UNL1        0.0000
     75 C          11.4243    5.9794    8.3738 C.ar    1  UNL1        0.0000
     76 H          12.0604    5.6543    9.1840 H       1  UNL1        0.0000
     77 C          10.0620    5.6955    8.4446 C.ar    1  UNL1        0.0000
@<TRIPOS>BOND
     1    72    71    1
     2    70    69    1
     3    71    69   ar
     4    71    73   ar
     5    69    68   ar
     6    38    36    1
     7    37    36    1
     8    39    36    1
     9    36    35    1
    10    55    53    1
    11    54    53    1
    12    74    73    1
    13    73    75   ar
    14    68     7    1
    15    68    77   ar
    16    53    52    1
    17    53     4    1
    18     7    52    1
    19    52    51    1
    20    30    27    1
    21    51    49    2
    22    51     6    1
    23    50    49    1
    24    33    31    1
    25    49    47    1
    26     6    44    1
    27    26    25    1
    28    47    48    1
    29    47    45    2
    30    44    45    1
    31    44    35    1
    32    45    46    1
    33    75    77   ar
    34    75    76    1
    35    35     2    1
    36    35    40    1
    37    77     1    1
    38    43    40    1
    39    28    27    1
    40    27    25    1
    41    27    29    1
    42    67    64    1
    43    58    56    1
    44    25    31    1
    45    25    14    1
    46    31    32    1
    47    31    34    1
    48     2     3    1
    49    40    42    1
    50    40    41    1
    51     4    64    1
    52     4    56    1
    53     4    60    1
    54    66    64    1
    55    64    65    1
    56    59    56    1
    57    56    57    1
    58    14     3   ar
    59    14    12   ar
    60     3     5   ar
    61    62    60    1
    62    63    60    1
    63    60    61    1
    64    16    15    1
    65    13    12    1
    66    12    10   ar
    67     5    15    1
    68     5     8   ar
    69    15    17    1
    70    15    21    1
    71    18    17    1
    72    22    21    1
    73    17    20    1
    74    17    19    1
    75    23    21    1
    76    21    24    1
    77    10     8   ar
    78    10    11    1
    79     8     9    1
