@<TRIPOS>MOLECULE
1,16
 26 25 0 0 0
SMALL
GASTEIGER

@<TRIPOS>ATOM
      1 N          -0.2680   -0.6158    2.0786 N.3     1  UNL1       -0.1368
      2 C          -0.0305   -1.9245    1.6434 C.3     1  UNL1        0.0494
      3 C           0.0249   -2.8544    2.8954 C.3     1  UNL1       -0.0304
      4 H           0.8846   -2.5220    3.4786 H       1  UNL1        0.0284
      5 H           0.2189   -3.8710    2.5461 H       1  UNL1        0.0284
      6 C           1.3404   -1.9926    0.9403 C.3     1  UNL1       -0.0440
      7 H           1.3321   -1.3603    0.0563 H       1  UNL1        0.0248
      8 H           1.5675   -3.0140    0.6449 H       1  UNL1        0.0248
      9 H           2.1122   -1.6308    1.6159 H       1  UNL1        0.0248
     10 C          -1.1234   -2.3727    0.6562 C.3     1  UNL1       -0.0440
     11 H          -2.1073   -2.2248    1.0926 H       1  UNL1        0.0248
     12 H          -0.9934   -3.4212    0.4005 H       1  UNL1        0.0248
     13 H          -1.0620   -1.7752   -0.2497 H       1  UNL1        0.0248
     14 C          -1.2270   -2.8544    3.7872 C.3     1  UNL1       -0.0304
     15 C          -1.1718   -1.9242    5.0390 C.3     1  UNL1        0.0494
     16 N          -0.9344   -0.6155    4.6035 N.3     1  UNL1       -0.1368
     17 C          -2.5427   -1.9923    5.7421 C.3     1  UNL1       -0.0440
     18 H          -2.5345   -1.3597    6.6260 H       1  UNL1        0.0248
     19 H          -2.7697   -3.0136    6.0378 H       1  UNL1        0.0248
     20 H          -3.3145   -1.6307    5.0664 H       1  UNL1        0.0248
     21 C          -0.0789   -2.3721    6.0263 C.3     1  UNL1       -0.0440
     22 H           0.9049   -2.2243    5.5900 H       1  UNL1        0.0248
     23 H          -0.2089   -3.4205    6.2823 H       1  UNL1        0.0248
     24 H          -0.1403   -1.7743    6.9321 H       1  UNL1        0.0248
     25 H          -2.0867   -2.5223    3.2039 H       1  UNL1        0.0284
     26 H          -1.4209   -3.8710    4.1368 H       1  UNL1        0.0284
@<TRIPOS>BOND
     1    13    10    1
     2     7     6    1
     3    12    10    1
     4     8     6    1
     5    10    11    1
     6    10     2    1
     7     6     9    1
     8     6     2    1
     9     2     1    1
    10     2     3    1
    11     5     3    1
    12     3     4    1
    13     3    14    1
    14    25    14    1
    15    14    26    1
    16    14    15    1
    17    16    15    1
    18    15    17    1
    19    15    21    1
    20    20    17    1
    21    22    21    1
    22    17    19    1
    23    17    18    1
    24    21    23    1
    25    21    24    1
