@<TRIPOS>MOLECULE
2,3
 71 74 0 0 0
SMALL
GASTEIGER

@<TRIPOS>ATOM
      1 SI          0.9978   13.0138    8.6201 Si      1  UNL1        0.0000
      2 N          -2.4217   11.9051    7.3663 N.3     1  UNL1        0.0000
      3 N          -2.1677   11.4484   10.2215 N.ar    1  UNL1        0.0000
      4 N           1.9056   12.5580   10.0097 N.2     1  UNL1        0.0000
      5 C          -2.2175   11.4004   11.6057 C.ar    1  UNL1        0.0000
      6 C          -0.9504   11.5251   12.1343 C.ar    1  UNL1        0.0000
      7 C          -0.0667   11.6924   11.0242 C.ar    1  UNL1        0.0000
      8 C          -0.8657   11.6319    9.8728 C.ar    1  UNL1        0.0000
      9 C          -0.2564   11.5334    8.4959 C.3     1  UNL1        0.0000
     10 C          -1.1929   11.6716    7.3106 C.3     1  UNL1        0.0000
     11 C          -0.5292   11.5193    5.9402 C.3     1  UNL1        0.0000
     12 H           0.5556   11.4731    6.0458 H       1  UNL1        0.0000
     13 C          -1.0196   10.2139    5.3115 C.3     1  UNL1        0.0000
     14 H          -0.6977    9.3607    5.9060 H       1  UNL1        0.0000
     15 H          -0.6212   10.1031    4.3048 H       1  UNL1        0.0000
     16 H          -2.1074   10.2184    5.2628 H       1  UNL1        0.0000
     17 C          -0.9146   12.7135    5.0686 C.3     1  UNL1        0.0000
     18 H          -0.5179   12.5994    4.0617 H       1  UNL1        0.0000
     19 H          -0.5281   13.6369    5.4951 H       1  UNL1        0.0000
     20 H          -1.9999   12.7853    5.0184 H       1  UNL1        0.0000
     21 C          -3.5345   11.2498   12.3203 C.3     1  UNL1        0.0000
     22 H          -4.3307   11.3038   11.5513 H       1  UNL1        0.0000
     23 C          -3.7464   12.3767   13.3381 C.3     1  UNL1        0.0000
     24 H          -3.0559   12.2626   14.1698 H       1  UNL1        0.0000
     25 H          -4.7615   12.3504   13.7310 H       1  UNL1        0.0000
     26 H          -3.5671   13.3491   12.8840 H       1  UNL1        0.0000
     27 C          -3.6515    9.8938   13.0274 C.3     1  UNL1        0.0000
     28 H          -2.9637    9.8496   13.8672 H       1  UNL1        0.0000
     29 H          -3.4165    9.0789   12.3463 H       1  UNL1        0.0000
     30 H          -4.6624    9.7508   13.4046 H       1  UNL1        0.0000
     31 C          -0.5823   11.5752   13.5563 C.ar    1  UNL1        0.0000
     32 C          -0.4602   10.4119   14.3101 C.ar    1  UNL1        0.0000
     33 H          -0.6212    9.4535   13.8376 H       1  UNL1        0.0000
     34 C          -0.1166   10.4753   15.6487 C.ar    1  UNL1        0.0000
     35 H          -0.0243    9.5647   16.2232 H       1  UNL1        0.0000
     36 C           0.1130   11.7003   16.2515 C.ar    1  UNL1        0.0000
     37 H           0.3805   11.7485   17.2968 H       1  UNL1        0.0000
     38 C           0.0045   12.8636   15.5072 C.ar    1  UNL1        0.0000
     39 H           0.1890   13.8214   15.9719 H       1  UNL1        0.0000
     40 C          -0.3399   12.8023   14.1697 C.ar    1  UNL1        0.0000
     41 H          -0.4207   13.7074   13.5849 H       1  UNL1        0.0000
     42 C           1.3518   11.9374   10.9896 C.2     1  UNL1        0.0000
     43 C           2.2246   11.3937   12.0895 C.3     1  UNL1        0.0000
     44 H           1.7801   11.6467   13.0560 H       1  UNL1        0.0000
     45 C           2.2399    9.8672   11.9461 C.3     1  UNL1        0.0000
     46 H           2.6753    9.5879   10.9889 H       1  UNL1        0.0000
     47 H           1.2301    9.4672   11.9899 H       1  UNL1        0.0000
     48 H           2.8287    9.4216   12.7447 H       1  UNL1        0.0000
     49 C           3.6377   11.9585   12.0188 C.3     1  UNL1        0.0000
     50 H           4.0829   11.7206   11.0575 H       1  UNL1        0.0000
     51 H           4.2505   11.5386   12.8134 H       1  UNL1        0.0000
     52 H           3.6151   13.0396   12.1215 H       1  UNL1        0.0000
     53 C           0.3867   10.1670    8.4304 C.ar    1  UNL1        0.0000
     54 C          -0.3359    9.0717    8.9034 C.ar    1  UNL1        0.0000
     55 H          -1.3247    9.2345    9.3162 H       1  UNL1        0.0000
     56 C           0.1916    7.7958    8.8640 C.ar    1  UNL1        0.0000
     57 H          -0.3887    6.9624    9.2342 H       1  UNL1        0.0000
     58 C           1.4620    7.5832    8.3533 C.ar    1  UNL1        0.0000
     59 H           1.8787    6.5873    8.3250 H       1  UNL1        0.0000
     60 C           2.1920    8.6616    7.8882 C.ar    1  UNL1        0.0000
     61 H           3.1875    8.5106    7.4961 H       1  UNL1        0.0000
     62 C           1.6600    9.9398    7.9254 C.ar    1  UNL1        0.0000
     63 H           2.2536   10.7654    7.5710 H       1  UNL1        0.0000
     64 C          -0.1679   14.5161    8.8305 C.3     1  UNL1        0.0000
     65 H          -1.1350   14.3127    8.3760 H       1  UNL1        0.0000
     66 H           0.2414   15.4135    8.3788 H       1  UNL1        0.0000
     67 H          -0.3315   14.7271    9.8828 H       1  UNL1        0.0000
     68 C           2.2540   13.4186    7.2539 C.3     1  UNL1        0.0000
     69 H           3.0974   12.7397    7.2391 H       1  UNL1        0.0000
     70 H           2.6482   14.4070    7.4584 H       1  UNL1        0.0000
     71 H           1.8128   13.4406    6.2654 H       1  UNL1        0.0000
@<TRIPOS>BOND
     1    18    17    1
     2    15    13    1
     3    20    17    1
     4    17    19    1
     5    17    11    1
     6    16    13    1
     7    13    14    1
     8    13    11    1
     9    11    12    1
    10    11    10    1
    11    71    68    1
    12    69    68    1
    13    68    70    1
    14    68     1    1
    15    10     2    1
    16    10     9    1
    17    61    60    1
    18    63    62    1
    19    60    62   ar
    20    60    58   ar
    21    62    53   ar
    22    59    58    1
    23    58    56   ar
    24    65    64    1
    25    66    64    1
    26    53     9    1
    27    53    54   ar
    28     9     1    1
    29     9     8    1
    30     1    64    1
    31     1     4    1
    32    64    67    1
    33    56    54   ar
    34    56    57    1
    35    54    55    1
    36     8     3   ar
    37     8     7   ar
    38     4    42    2
    39     3     5   ar
    40    46    45    1
    41    42     7    1
    42    42    43    1
    43     7     6   ar
    44    50    49    1
    45    22    21    1
    46     5     6   ar
    47     5    21    1
    48    45    47    1
    49    45    43    1
    50    45    48    1
    51    49    43    1
    52    49    52    1
    53    49    51    1
    54    43    44    1
    55     6    31    1
    56    21    27    1
    57    21    23    1
    58    29    27    1
    59    26    23    1
    60    27    30    1
    61    27    28    1
    62    23    25    1
    63    23    24    1
    64    31    40   ar
    65    31    32   ar
    66    41    40    1
    67    33    32    1
    68    40    38   ar
    69    32    34   ar
    70    38    39    1
    71    38    36   ar
    72    34    35    1
    73    34    36   ar
    74    36    37    1
