@<TRIPOS>MOLECULE
1
 45 44 0 0 0
SMALL
GASTEIGER

@<TRIPOS>ATOM
      1 B           4.3697    2.8919    2.3319 B       1  UNL1        0.0000
      2 CL          3.1000    1.9505    1.6157 Cl      1  UNL1        0.0000
      3 N           4.0233    3.6773    3.4347 N.3     1  UNL1        0.0000
      4 SI          2.4658    3.4631    4.2927 Si      1  UNL1        0.0000
      5 C           2.3328    1.6353    4.8328 C.3     1  UNL1        0.0000
      6 H           2.1296    0.9745    3.9974 H       1  UNL1        0.0000
      7 H           1.5262    1.5150    5.5491 H       1  UNL1        0.0000
      8 H           3.2486    1.2975    5.3116 H       1  UNL1        0.0000
      9 C           2.5540    4.4954    5.8913 C.3     1  UNL1        0.0000
     10 H           2.8019    5.5320    5.6957 H       1  UNL1        0.0000
     11 H           3.3068    4.1026    6.5674 H       1  UNL1        0.0000
     12 H           1.6007    4.4677    6.4092 H       1  UNL1        0.0000
     13 C           0.9789    4.0324    3.2459 C.3     1  UNL1        0.0000
     14 H           0.8910    3.4715    2.3217 H       1  UNL1        0.0000
     15 H           1.0322    5.0874    2.9956 H       1  UNL1        0.0000
     16 H           0.0656    3.8739    3.8104 H       1  UNL1        0.0000
     17 B           5.0016    4.5568    4.0644 B       1  UNL1        0.0000
     18 CL          6.3545    3.7151    4.7733 Cl      1  UNL1        0.0000
     19 N           4.9420    5.9477    4.1212 N.3     1  UNL1        0.0000
     20 SI          4.1628    6.8727    2.8159 Si      1  UNL1        0.0000
     21 C           5.4296    8.1334    2.1456 C.3     1  UNL1        0.0000
     22 H           6.2016    7.6250    1.5753 H       1  UNL1        0.0000
     23 H           5.9231    8.7125    2.9163 H       1  UNL1        0.0000
     24 H           4.9364    8.8301    1.4746 H       1  UNL1        0.0000
     25 C           3.6984    5.8446    1.2846 C.3     1  UNL1        0.0000
     26 H           4.5412    5.2388    0.9563 H       1  UNL1        0.0000
     27 H           3.4294    6.5059    0.4664 H       1  UNL1        0.0000
     28 H           2.8647    5.1755    1.4528 H       1  UNL1        0.0000
     29 SI          5.8819    6.7979    5.3920 Si      1  UNL1        0.0000
     30 C           5.7305    5.9520    7.0978 C.3     1  UNL1        0.0000
     31 H           6.0749    4.9251    7.0960 H       1  UNL1        0.0000
     32 H           4.7082    5.9638    7.4636 H       1  UNL1        0.0000
     33 H           6.3352    6.4972    7.8164 H       1  UNL1        0.0000
     34 C           5.1142    8.5148    5.7088 C.3     1  UNL1        0.0000
     35 H           5.0908    9.1581    4.8392 H       1  UNL1        0.0000
     36 H           5.7037    9.0171    6.4688 H       1  UNL1        0.0000
     37 H           4.1019    8.4348    6.0902 H       1  UNL1        0.0000
     38 C           2.5777    7.7115    3.4785 C.3     1  UNL1        0.0000
     39 H           1.9953    7.0546    4.1168 H       1  UNL1        0.0000
     40 H           1.9457    8.0062    2.6463 H       1  UNL1        0.0000
     41 H           2.7986    8.6088    4.0447 H       1  UNL1        0.0000
     42 C           7.6998    6.9309    4.8408 C.3     1  UNL1        0.0000
     43 H           8.2423    6.0216    5.0809 H       1  UNL1        0.0000
     44 H           8.2009    7.7553    5.3383 H       1  UNL1        0.0000
     45 H           7.7827    7.0827    3.7697 H       1  UNL1        0.0000
@<TRIPOS>BOND
     1    27    25    1
     2    26    25    1
     3    25    28    1
     4    25    20    1
     5    24    21    1
     6    22    21    1
     7     2     1    1
     8    21    20    1
     9    21    23    1
    10    14    13    1
    11     1     3    1
    12    40    38    1
    13    20    38    1
    14    20    19    1
    15    15    13    1
    16    13    16    1
    17    13     4    1
    18     3    17    1
    19     3     4    1
    20    38    41    1
    21    38    39    1
    22    45    42    1
    23     6     5    1
    24    17    19    1
    25    17    18    1
    26    19    29    1
    27     4     5    1
    28     4     9    1
    29     5     8    1
    30     5     7    1
    31    35    34    1
    32    42    43    1
    33    42    44    1
    34    42    29    1
    35    29    34    1
    36    29    30    1
    37    10     9    1
    38    34    37    1
    39    34    36    1
    40     9    12    1
    41     9    11    1
    42    31    30    1
    43    30    32    1
    44    30    33    1
