@<TRIPOS>MOLECULE
2
 15 14 0 0 0
SMALL
GASTEIGER

@<TRIPOS>ATOM
      1 SI          1.9710    5.1300    0.0406 Si      1  UNL1        0.0000
      2 B           0.8141    3.3046    2.0804 B       1  UNL1        0.0000
      3 N           1.2918    4.0986    1.2220 N.3     1  UNL1        0.0000
      4 C           3.7334    4.5661   -0.3973 C.3     1  UNL1        0.0000
      5 H           3.7378    3.5373   -0.7435 H       1  UNL1        0.0000
      6 H           4.3907    4.6217    0.4654 H       1  UNL1        0.0000
      7 H           4.1632    5.1830   -1.1809 H       1  UNL1        0.0000
      8 C           2.0039    6.8965    0.7699 C.3     1  UNL1        0.0000
      9 H           1.0040    7.2581    0.9950 H       1  UNL1        0.0000
     10 H           2.4534    7.5960    0.0722 H       1  UNL1        0.0000
     11 H           2.5826    6.9345    1.6885 H       1  UNL1        0.0000
     12 C           0.8454    5.1038   -1.4995 C.3     1  UNL1        0.0000
     13 H          -0.1605    5.4436   -1.2679 H       1  UNL1        0.0000
     14 H           0.7666    4.1010   -1.9084 H       1  UNL1        0.0000
     15 H           1.2366    5.7483   -2.2807 H       1  UNL1        0.0000
@<TRIPOS>BOND
     1    15    12    1
     2    14    12    1
     3    12    13    1
     4    12     1    1
     5     7     4    1
     6     5     4    1
     7     4     1    1
     8     4     6    1
     9     1     8    1
    10     1     3    1
    11    10     8    1
    12     8     9    1
    13     8    11    1
    14     3     2    1
