@<TRIPOS>MOLECULE
3
 28 27 0 0 0
SMALL
GASTEIGER

@<TRIPOS>ATOM
      1 SI         -2.7902    3.2124    8.2261 Si      1  UNL1        0.0000
      2 SI         -0.1839    1.5112    8.8049 Si      1  UNL1        0.0000
      3 B          -0.2451    4.1376    8.1609 B       1  UNL1        0.0000
      4 N          -1.0034    3.0531    8.3617 N.3     1  UNL1        0.0000
      5 C          -3.2426    5.0542    8.3058 C.3     1  UNL1        0.0000
      6 H          -2.8095    5.6081    7.4790 H       1  UNL1        0.0000
      7 H          -2.8955    5.5151    9.2253 H       1  UNL1        0.0000
      8 H          -4.3194    5.1881    8.2606 H       1  UNL1        0.0000
      9 C          -3.5955    2.3201    9.7037 C.3     1  UNL1        0.0000
     10 H          -3.3335    1.2695    9.7619 H       1  UNL1        0.0000
     11 H          -4.6764    2.3822    9.6263 H       1  UNL1        0.0000
     12 H          -3.3114    2.7848   10.6432 H       1  UNL1        0.0000
     13 C          -3.2957    2.4880    6.5387 C.3     1  UNL1        0.0000
     14 H          -3.1784    1.4110    6.4899 H       1  UNL1        0.0000
     15 H          -2.7007    2.9218    5.7400 H       1  UNL1        0.0000
     16 H          -4.3368    2.7117    6.3281 H       1  UNL1        0.0000
     17 C           1.5732    1.5347    8.0844 C.3     1  UNL1        0.0000
     18 H           2.1869    2.2954    8.5564 H       1  UNL1        0.0000
     19 H           1.5699    1.7350    7.0172 H       1  UNL1        0.0000
     20 H           2.0644    0.5782    8.2360 H       1  UNL1        0.0000
     21 C          -0.1479    1.4344   10.7064 C.3     1  UNL1        0.0000
     22 H           0.3762    2.2958   11.1113 H       1  UNL1        0.0000
     23 H           0.3747    0.5454   11.0460 H       1  UNL1        0.0000
     24 H          -1.1412    1.4176   11.1433 H       1  UNL1        0.0000
     25 C          -1.1220    0.0499    8.0235 C.3     1  UNL1        0.0000
     26 H          -1.0941    0.0955    6.9393 H       1  UNL1        0.0000
     27 H          -2.1609   -0.0049    8.3277 H       1  UNL1        0.0000
     28 H          -0.6479   -0.8806    8.3193 H       1  UNL1        0.0000
@<TRIPOS>BOND
     1    15    13    1
     2    16    13    1
     3    14    13    1
     4    13     1    1
     5    26    25    1
     6    19    17    1
     7     6     5    1
     8    25    28    1
     9    25    27    1
    10    25     2    1
    11    17    20    1
    12    17    18    1
    13    17     2    1
    14     3     4    1
    15     1     5    1
    16     1     4    1
    17     1     9    1
    18     8     5    1
    19     5     7    1
    20     4     2    1
    21     2    21    1
    22    11     9    1
    23     9    10    1
    24     9    12    1
    25    21    23    1
    26    21    22    1
    27    21    24    1
