@<TRIPOS>MOLECULE
1
 42 44 0 0 0
SMALL
GASTEIGER

@<TRIPOS>ATOM
      1 B           4.0786    6.1208   13.2220 B       1  UNL1        0.0000
      2 F           3.0809    6.5795   13.9683 F       1  UNL1        0.0000
      3 SI          3.6029    5.5303   11.4020 Si      1  UNL1        0.0000
      4 SI          1.6276    6.7582   10.8769 Si      1  UNL1        0.0000
      5 C           1.1246    6.5886    9.0395 C.3     1  UNL1        0.0000
      6 H           0.2039    7.1208    8.8186 H       1  UNL1        0.0000
      7 H           0.9726    5.5482    8.7728 H       1  UNL1        0.0000
      8 H           1.8950    6.9846    8.3859 H       1  UNL1        0.0000
      9 C           1.8785    8.6268   11.2264 C.3     1  UNL1        0.0000
     10 H           2.7245    9.0224   10.6726 H       1  UNL1        0.0000
     11 H           2.0644    8.7963   12.2827 H       1  UNL1        0.0000
     12 H           1.0073    9.2164   10.9533 H       1  UNL1        0.0000
     13 C           0.1425    6.2069   11.9501 C.3     1  UNL1        0.0000
     14 H           0.3771    6.3092   13.0047 H       1  UNL1        0.0000
     15 H          -0.1090    5.1660   11.7729 H       1  UNL1        0.0000
     16 H          -0.7499    6.7959   11.7552 H       1  UNL1        0.0000
     17 SI          3.1480    3.1987   11.5500 Si      1  UNL1        0.0000
     18 C           4.6469    2.1141   11.0730 C.3     1  UNL1        0.0000
     19 H           4.4259    1.0547   11.1735 H       1  UNL1        0.0000
     20 H           5.5015    2.3296   11.7044 H       1  UNL1        0.0000
     21 H           4.9469    2.2872   10.0445 H       1  UNL1        0.0000
     22 C           2.6461    2.7538   13.3398 C.3     1  UNL1        0.0000
     23 H           2.3735    1.7078   13.4509 H       1  UNL1        0.0000
     24 H           1.7986    3.3487   13.6661 H       1  UNL1        0.0000
     25 H           3.4653    2.9534   14.0247 H       1  UNL1        0.0000
     26 C           1.7170    2.7008   10.3783 C.3     1  UNL1        0.0000
     27 H           1.9627    2.9384    9.3481 H       1  UNL1        0.0000
     28 H           0.7993    3.2249   10.6236 H       1  UNL1        0.0000
     29 H           1.5070    1.6358   10.4256 H       1  UNL1        0.0000
     30 SI          5.2753    5.9614    9.7816 Si      1  UNL1        0.0000
     31 C           7.0290    5.3905   10.2858 C.3     1  UNL1        0.0000
     32 H           7.0762    4.3079   10.3327 H       1  UNL1        0.0000
     33 H           7.2962    5.7627   11.2699 H       1  UNL1        0.0000
     34 H           7.7919    5.7198    9.5851 H       1  UNL1        0.0000
     35 C           4.8523    5.0641    8.1450 C.3     1  UNL1        0.0000
     36 H           5.5667    5.2874    7.3576 H       1  UNL1        0.0000
     37 H           3.8702    5.3524    7.7852 H       1  UNL1        0.0000
     38 H           4.8436    3.9876    8.2799 H       1  UNL1        0.0000
     39 C           5.3762    7.8266    9.3398 C.3     1  UNL1        0.0000
     40 H           6.2055    8.0481    8.6732 H       1  UNL1        0.0000
     41 H           5.4949    8.4446   10.2238 H       1  UNL1        0.0000
     42 H           4.4671    8.1481    8.8413 H       1  UNL1        0.0000
@<TRIPOS>BOND
     1    36    35    1
     2    37    35    1
     3    35    38    1
     4    35    30    1
     5     8     5    1
     6    40    39    1
     7     7     5    1
     8     6     5    1
     9    42    39    1
    10     5     4    1
    11    39    30    1
    12    39    41    1
    13    27    26    1
    14    34    31    1
    15    30    31    1
    16    30     3    1
    17    21    18    1
    18    31    32    1
    19    31    33    1
    20    26    29    1
    21    26    28    1
    22    26    17    1
    23    10     9    1
    24     4     9    1
    25     4     3    1
    26     4    13    1
    27    12     9    1
    28    18    19    1
    29    18    17    1
    30    18    20    1
    31     9    11    1
    32     3    17    1
    33     3     1    1
    34    17    22    1
    35    16    13    1
    36    15    13    1
    37    13    14    1
    38     1     2    1
    39    22    23    1
    40    22    24    1
    41    22    25    1
    42     3     2    0
    43     3    22    0
    44     3    35    0
