@<TRIPOS>MOLECULE
1
 25 25 0 0 0
SMALL
GASTEIGER

@<TRIPOS>ATOM
      1 B           5.7402    2.2838    4.3312 B       1  UNL1        0.0000
      2 CL          6.2581    2.9548    2.8409 Cl      1  UNL1        0.0000
      3 C           5.4554    3.3476    5.4675 C.ar    1  UNL1        0.0000
      4 C           6.4700    3.7318    6.3532 C.ar    1  UNL1        0.0000
      5 C           6.2086    4.6333    7.3842 C.ar    1  UNL1        0.0000
      6 C           4.9328    5.1570    7.5134 C.ar    1  UNL1        0.0000
      7 H           4.7263    5.8527    8.3154 H       1  UNL1        0.0000
      8 C           3.9185    4.8234    6.6309 C.ar    1  UNL1        0.0000
      9 C           4.1822    3.9190    5.6027 C.ar    1  UNL1        0.0000
     10 C           7.8603    3.1924    6.1867 C.3     1  UNL1        0.0000
     11 H           8.1708    2.6395    7.0730 H       1  UNL1        0.0000
     12 H           8.5679    4.0090    6.0425 H       1  UNL1        0.0000
     13 H           7.9174    2.5311    5.3269 H       1  UNL1        0.0000
     14 C           7.2882    5.0386    8.3421 C.3     1  UNL1        0.0000
     15 H           6.8968    5.7183    9.0949 H       1  UNL1        0.0000
     16 H           8.1021    5.5374    7.8163 H       1  UNL1        0.0000
     17 H           7.7047    4.1664    8.8448 H       1  UNL1        0.0000
     18 C           2.5576    5.4322    6.7891 C.3     1  UNL1        0.0000
     19 H           2.2787    5.9930    5.8973 H       1  UNL1        0.0000
     20 H           2.5378    6.1073    7.6411 H       1  UNL1        0.0000
     21 H           1.8054    4.6589    6.9432 H       1  UNL1        0.0000
     22 C           3.0829    3.5809    4.6360 C.3     1  UNL1        0.0000
     23 H           2.2262    3.1548    5.1589 H       1  UNL1        0.0000
     24 H           3.4184    2.8687    3.8878 H       1  UNL1        0.0000
     25 H           2.7422    4.4803    4.1227 H       1  UNL1        0.0000
@<TRIPOS>BOND
     1     2     1    1
     2    24    22    1
     3    25    22    1
     4     1     3    1
     5    22    23    1
     6    22     9    1
     7    13    10    1
     8     3     9   ar
     9     3     4   ar
    10     9     8   ar
    11    19    18    1
    12    12    10    1
    13    10     4    1
    14    10    11    1
    15     4     5   ar
    16     8    18    1
    17     8     6   ar
    18    18    21    1
    19    18    20    1
    20     5     6   ar
    21     5    14    1
    22     6     7    1
    23    16    14    1
    24    14    17    1
    25    14    15    1
