@<TRIPOS>MOLECULE
2
 25 25 0 0 0
SMALL
GASTEIGER

@<TRIPOS>ATOM
      1 CL          1.7743    2.9125    9.1972 Cl      1  UNL1        0.0000
      2 B           2.2929    4.5054    8.8285 B       1  UNL1        0.0000
      3 C           1.4362    5.6670    9.4770 C.ar    1  UNL1        0.0000
      4 C           0.2677    6.1128    8.8436 C.ar    1  UNL1        0.0000
      5 C          -0.4752    7.1580    9.3917 C.ar    1  UNL1        0.0000
      6 C          -0.0467    7.7451   10.5713 C.ar    1  UNL1        0.0000
      7 H          -0.6211    8.5583   10.9939 H       1  UNL1        0.0000
      8 C           1.0893    7.3060   11.2316 C.ar    1  UNL1        0.0000
      9 C           1.8298    6.2601   10.6828 C.ar    1  UNL1        0.0000
     10 C          -0.2167    5.4578    7.5807 C.3     1  UNL1        0.0000
     11 H          -0.3800    6.1989    6.7986 H       1  UNL1        0.0000
     12 H          -1.1655    4.9516    7.7606 H       1  UNL1        0.0000
     13 H           0.4978    4.7224    7.2157 H       1  UNL1        0.0000
     14 C          -1.7252    7.6462    8.7227 C.3     1  UNL1        0.0000
     15 H          -2.1820    8.4447    9.3020 H       1  UNL1        0.0000
     16 H          -2.4476    6.8376    8.6170 H       1  UNL1        0.0000
     17 H          -1.5046    8.0267    7.7255 H       1  UNL1        0.0000
     18 C           1.5062    7.9476   12.5207 C.3     1  UNL1        0.0000
     19 H           2.5081    8.3672   12.4357 H       1  UNL1        0.0000
     20 H           1.5216    7.2153   13.3273 H       1  UNL1        0.0000
     21 H           0.8191    8.7455   12.7917 H       1  UNL1        0.0000
     22 C           3.0398    5.7509   11.4101 C.3     1  UNL1        0.0000
     23 H           2.7573    5.3650   12.3897 H       1  UNL1        0.0000
     24 H           3.7640    6.5499   11.5660 H       1  UNL1        0.0000
     25 H           3.5168    4.9511   10.8489 H       1  UNL1        0.0000
@<TRIPOS>BOND
     1    11    10    1
     2    13    10    1
     3    10    12    1
     4    10     4    1
     5    17    14    1
     6    16    14    1
     7    14    15    1
     8    14     5    1
     9     2     1    1
    10     2     3    1
    11     4     5   ar
    12     4     3   ar
    13     5     6   ar
    14     3     9   ar
    15     6     7    1
    16     6     8   ar
    17     9     8   ar
    18     9    22    1
    19    25    22    1
    20     8    18    1
    21    22    24    1
    22    22    23    1
    23    19    18    1
    24    18    21    1
    25    18    20    1
