@<TRIPOS>MOLECULE
24
 25 25 0 0 0
SMALL
GASTEIGER

@<TRIPOS>ATOM
      1 C          16.2700    4.7079   13.1225 C.ar    1  UNL1        0.0000
      2 C          17.1696    3.9233   13.8598 C.ar    1  UNL1        0.0000
      3 C          16.6974    2.9340   14.7209 C.ar    1  UNL1        0.0000
      4 C          15.3306    2.7369   14.8370 C.ar    1  UNL1        0.0000
      5 H          14.9651    1.9655   15.5010 H       1  UNL1        0.0000
      6 C          14.4197    3.5163   14.1427 C.ar    1  UNL1        0.0000
      7 C          14.8932    4.5106   13.2885 C.ar    1  UNL1        0.0000
      8 C          18.6502    4.1660   13.7601 C.3     1  UNL1        0.0000
      9 H          19.1893    3.2300   13.6200 H       1  UNL1        0.0000
     10 H          19.0160    4.6281   14.6782 H       1  UNL1        0.0000
     11 H          18.8956    4.8264   12.9284 H       1  UNL1        0.0000
     12 C          17.6459    2.0936   15.5219 C.3     1  UNL1        0.0000
     13 H          18.2832    1.4994   14.8669 H       1  UNL1        0.0000
     14 H          17.0988    1.4164   16.1730 H       1  UNL1        0.0000
     15 H          18.2913    2.7198   16.1363 H       1  UNL1        0.0000
     16 C          12.9481    3.2957   14.3205 C.3     1  UNL1        0.0000
     17 H          12.4669    4.1979   14.6968 H       1  UNL1        0.0000
     18 H          12.7642    2.4869   15.0233 H       1  UNL1        0.0000
     19 H          12.4788    3.0416   13.3702 H       1  UNL1        0.0000
     20 C          13.9179    5.4018   12.5758 C.3     1  UNL1        0.0000
     21 H          14.4347    6.0916   11.9110 H       1  UNL1        0.0000
     22 H          13.3449    5.9859   13.2967 H       1  UNL1        0.0000
     23 H          13.2117    4.8165   11.9877 H       1  UNL1        0.0000
     24 B          16.8181    5.8136   12.1429 B       1  UNL1        0.0000
     25 BR         17.2435    7.4601   12.9984 Br      1  UNL1        0.0000
@<TRIPOS>BOND
     1    21    20    1
     2    23    20    1
     3    24    25    1
     4    24     1    1
     5    20     7    1
     6    20    22    1
     7    11     8    1
     8     1     7   ar
     9     1     2   ar
    10     7     6   ar
    11    19    16    1
    12     9     8    1
    13     8     2    1
    14     8    10    1
    15     2     3   ar
    16     6    16    1
    17     6     4   ar
    18    16    17    1
    19    16    18    1
    20     3     4   ar
    21     3    12    1
    22     4     5    1
    23    13    12    1
    24    12    15    1
    25    12    14    1
