@<TRIPOS>MOLECULE
3
 28 27 0 0 0
SMALL
GASTEIGER

@<TRIPOS>ATOM
      1 SI          2.3861   10.4893   13.9023 Si      1  UNL1        0.0000
      2 N           1.2277   11.1834   15.0679 N.3     1  UNL1        0.0000
      3 B           1.5850   12.3020   15.7783 B       1  UNL1        0.0000
      4 SI         -0.2934   10.3683   15.5095 Si      1  UNL1        0.0000
      5 C           1.4490    9.7176   12.4317 C.3     1  UNL1        0.0000
      6 H           0.9035   10.4602   11.8583 H       1  UNL1        0.0000
      7 H           0.7440    8.9535   12.7385 H       1  UNL1        0.0000
      8 H           2.1607    9.2506   11.7585 H       1  UNL1        0.0000
      9 C           3.4970   11.8805   13.2356 C.3     1  UNL1        0.0000
     10 H           3.9246   12.4542   14.0526 H       1  UNL1        0.0000
     11 H           2.9573   12.5712   12.5960 H       1  UNL1        0.0000
     12 H           4.3183   11.4692   12.6571 H       1  UNL1        0.0000
     13 C           3.4490    9.1965   14.8109 C.3     1  UNL1        0.0000
     14 H           2.8637    8.3665   15.1933 H       1  UNL1        0.0000
     15 H           3.9606    9.6542   15.6532 H       1  UNL1        0.0000
     16 H           4.2084    8.7861   14.1519 H       1  UNL1        0.0000
     17 C          -0.0376    8.4862   15.6621 C.3     1  UNL1        0.0000
     18 H           0.6700    8.2491   16.4507 H       1  UNL1        0.0000
     19 H           0.3227    8.0306   14.7465 H       1  UNL1        0.0000
     20 H          -0.9778    8.0063   15.9161 H       1  UNL1        0.0000
     21 C          -1.6004   10.7919   14.1856 C.3     1  UNL1        0.0000
     22 H          -1.3281   10.4268   13.2010 H       1  UNL1        0.0000
     23 H          -1.7410   11.8664   14.1126 H       1  UNL1        0.0000
     24 H          -2.5581   10.3499   14.4432 H       1  UNL1        0.0000
     25 C          -0.8521   11.0309   17.1986 C.3     1  UNL1        0.0000
     26 H          -0.9013   12.1151   17.1915 H       1  UNL1        0.0000
     27 H          -0.1530   10.7531   17.9812 H       1  UNL1        0.0000
     28 H          -1.8286   10.6465   17.4764 H       1  UNL1        0.0000
@<TRIPOS>BOND
     1     8     5    1
     2     6     5    1
     3     5     7    1
     4     5     1    1
     5    11     9    1
     6    12     9    1
     7    22    21    1
     8     9     1    1
     9     9    10    1
    10     1    13    1
    11     1     2    1
    12    23    21    1
    13    16    13    1
    14    21    24    1
    15    21     4    1
    16    19    17    1
    17    13    14    1
    18    13    15    1
    19     2     4    1
    20     2     3    1
    21     4    17    1
    22     4    25    1
    23    17    20    1
    24    17    18    1
    25    26    25    1
    26    25    28    1
    27    25    27    1
