@<TRIPOS>MOLECULE
2
 28 27 0 0 0
SMALL
GASTEIGER

@<TRIPOS>ATOM
      1 N           0.0146   14.9827   14.8009 N.3     1  UNL1        0.0000
      2 B           0.8932   14.3776   15.6633 B       1  UNL1        0.0000
      3 SI          0.5175   15.1578   13.0987 Si      1  UNL1        0.0000
      4 SI         -1.5248   15.6239   15.4245 Si      1  UNL1        0.0000
      5 C           0.0739   13.5211   12.2241 C.3     1  UNL1        0.0000
      6 H          -0.9964   13.4240   12.0670 H       1  UNL1        0.0000
      7 H           0.4002   12.6719   12.8167 H       1  UNL1        0.0000
      8 H           0.5499   13.4554   11.2503 H       1  UNL1        0.0000
      9 C          -0.3580   16.6092   12.2317 C.3     1  UNL1        0.0000
     10 H          -0.0752   17.5637   12.6622 H       1  UNL1        0.0000
     11 H          -1.4390   16.5353   12.2663 H       1  UNL1        0.0000
     12 H          -0.0672   16.6279   11.1859 H       1  UNL1        0.0000
     13 C           2.3872   15.4986   13.0783 C.3     1  UNL1        0.0000
     14 H           2.9122   14.8144   13.7401 H       1  UNL1        0.0000
     15 H           2.6050   16.5053   13.4236 H       1  UNL1        0.0000
     16 H           2.8068   15.3984   12.0819 H       1  UNL1        0.0000
     17 C          -1.7194   15.0970   17.2389 C.3     1  UNL1        0.0000
     18 H          -0.8042   15.2740   17.7957 H       1  UNL1        0.0000
     19 H          -1.9557   14.0419   17.3326 H       1  UNL1        0.0000
     20 H          -2.5178   15.6513   17.7223 H       1  UNL1        0.0000
     21 C          -2.9484   14.8766   14.3960 C.3     1  UNL1        0.0000
     22 H          -3.0861   13.8224   14.6188 H       1  UNL1        0.0000
     23 H          -2.7819   14.9679   13.3280 H       1  UNL1        0.0000
     24 H          -3.8821   15.3796   14.6265 H       1  UNL1        0.0000
     25 C          -1.4957   17.5290   15.3362 C.3     1  UNL1        0.0000
     26 H          -1.8147   17.9072   14.3712 H       1  UNL1        0.0000
     27 H          -0.4989   17.9132   15.5310 H       1  UNL1        0.0000
     28 H          -2.1596   17.9529   16.0835 H       1  UNL1        0.0000
@<TRIPOS>BOND
     1    12     9    1
     2     8     5    1
     3     6     5    1
     4    16    13    1
     5     5     7    1
     6     5     3    1
     7     9    11    1
     8     9    10    1
     9     9     3    1
    10    13     3    1
    11    13    15    1
    12    13    14    1
    13     3     1    1
    14    23    21    1
    15    26    25    1
    16    21    22    1
    17    21    24    1
    18    21     4    1
    19     1     4    1
    20     1     2    1
    21    25     4    1
    22    25    27    1
    23    25    28    1
    24     4    17    1
    25    17    19    1
    26    17    20    1
    27    17    18    1
