@<TRIPOS>MOLECULE
17
 41 43 0 0 0
SMALL
GASTEIGER

@<TRIPOS>ATOM
      1 SI          8.1593   -2.3064    3.5658 Si      1  UNL1        0.0000
      2 SI          6.8827   -1.8473    5.5278 Si      1  UNL1        0.0000
      3 SI         10.4859   -2.5041    4.0442 Si      1  UNL1        0.0000
      4 SI          7.3375   -4.2094    2.3906 Si      1  UNL1        0.0000
      5 C          11.4913   -2.2869    2.4359 C.3     1  UNL1        0.0000
      6 H          12.5607   -2.3903    2.5992 H       1  UNL1        0.0000
      7 H          11.3178   -1.3036    2.0076 H       1  UNL1        0.0000
      8 H          11.2033   -3.0201    1.6896 H       1  UNL1        0.0000
      9 C           7.5156   -2.8983    6.9940 C.3     1  UNL1        0.0000
     10 H           6.9403   -2.7140    7.8966 H       1  UNL1        0.0000
     11 H           8.5539   -2.6767    7.2186 H       1  UNL1        0.0000
     12 H           7.4467   -3.9592    6.7755 H       1  UNL1        0.0000
     13 C           8.6425   -4.9027    1.1821 C.3     1  UNL1        0.0000
     14 H           8.2603   -5.7533    0.6237 H       1  UNL1        0.0000
     15 H           9.5355   -5.2307    1.7056 H       1  UNL1        0.0000
     16 H           8.9402   -4.1488    0.4610 H       1  UNL1        0.0000
     17 B           8.0311   -0.7445    2.4931 B       1  UNL1        0.0000
     18 C           7.0557    0.0027    5.9669 C.3     1  UNL1        0.0000
     19 H           6.5232    0.2626    6.8779 H       1  UNL1        0.0000
     20 H           6.6612    0.6235    5.1674 H       1  UNL1        0.0000
     21 H           8.0961    0.2784    6.1064 H       1  UNL1        0.0000
     22 C           5.0293   -2.2257    5.2687 C.3     1  UNL1        0.0000
     23 H           4.4357   -1.9496    6.1363 H       1  UNL1        0.0000
     24 H           4.8580   -3.2810    5.0801 H       1  UNL1        0.0000
     25 H           4.6399   -1.6734    4.4197 H       1  UNL1        0.0000
     26 C           5.7763   -3.7326    1.4025 C.3     1  UNL1        0.0000
     27 H           5.3102   -4.5931    0.9297 H       1  UNL1        0.0000
     28 H           6.0215   -3.0219    0.6180 H       1  UNL1        0.0000
     29 H           5.0319   -3.2667    2.0408 H       1  UNL1        0.0000
     30 C          10.8864   -4.2094    4.8102 C.3     1  UNL1        0.0000
     31 H          11.9424   -4.3064    5.0461 H       1  UNL1        0.0000
     32 H          10.6295   -5.0170    4.1319 H       1  UNL1        0.0000
     33 H          10.3319   -4.3662    5.7299 H       1  UNL1        0.0000
     34 C           6.8972   -5.5890    3.6408 C.3     1  UNL1        0.0000
     35 H           6.5455   -6.4857    3.1386 H       1  UNL1        0.0000
     36 H           6.1171   -5.2718    4.3250 H       1  UNL1        0.0000
     37 H           7.7612   -5.8671    4.2362 H       1  UNL1        0.0000
     38 C          11.0312   -1.1417    5.2673 C.3     1  UNL1        0.0000
     39 H          12.0981   -1.1794    5.4692 H       1  UNL1        0.0000
     40 H          10.5171   -1.2332    6.2188 H       1  UNL1        0.0000
     41 H          10.8082   -0.1571    4.8675 H       1  UNL1        0.0000
@<TRIPOS>BOND
     1    16    13    1
     2    28    26    1
     3    14    13    1
     4    27    26    1
     5    13    15    1
     6    13     4    1
     7    26    29    1
     8    26     4    1
     9     8     5    1
    10     7     5    1
    11     4     1    1
    12     4    34    1
    13     5     6    1
    14     5     3    1
    15    17     1    1
    16    35    34    1
    17     1     3    1
    18     1     2    1
    19    34    37    1
    20    34    36    1
    21     3    30    1
    22     3    38    1
    23    32    30    1
    24    25    22    1
    25    30    31    1
    26    30    33    1
    27    41    38    1
    28    24    22    1
    29    20    18    1
    30    38    39    1
    31    38    40    1
    32    22     2    1
    33    22    23    1
    34     2    18    1
    35     2     9    1
    36    18    21    1
    37    18    19    1
    38    12     9    1
    39     9    11    1
    40     9    10    1
    41     1    18    0
    42     1    34    0
    43     1     5    0
