@<TRIPOS>MOLECULE
2
 25 25 0 0 0
SMALL
GASTEIGER

@<TRIPOS>ATOM
      1 CL          1.8173   13.2279    9.0991 Cl      1  UNL1        0.0000
      2 B           2.3329   11.6283    8.7414 B       1  UNL1        0.0000
      3 C           1.4555   10.4834    9.3943 C.ar    1  UNL1        0.0000
      4 C           1.8438    9.8764   10.5951 C.ar    1  UNL1        0.0000
      5 C           1.0983    8.8283   11.1329 C.ar    1  UNL1        0.0000
      6 C          -0.0435    8.4063   10.4717 C.ar    1  UNL1        0.0000
      7 H          -0.6226    7.5922   10.8860 H       1  UNL1        0.0000
      8 C          -0.4727    9.0130    9.3025 C.ar    1  UNL1        0.0000
      9 C           0.2788   10.0564    8.7623 C.ar    1  UNL1        0.0000
     10 C           3.0537   10.3736   11.3318 C.3     1  UNL1        0.0000
     11 H           3.7792    9.5730   11.4744 H       1  UNL1        0.0000
     12 H           2.7693   10.7407   12.3181 H       1  UNL1        0.0000
     13 H           3.5300   11.1861   10.7879 H       1  UNL1        0.0000
     14 C           1.5159    8.1659   12.4112 C.3     1  UNL1        0.0000
     15 H           0.8302    7.3623   12.6683 H       1  UNL1        0.0000
     16 H           1.5297    8.8843   13.2304 H       1  UNL1        0.0000
     17 H           2.5187    7.7496   12.3194 H       1  UNL1        0.0000
     18 C          -1.7322    8.5467    8.6357 C.3     1  UNL1        0.0000
     19 H          -1.5221    8.1711    7.6344 H       1  UNL1        0.0000
     20 H          -2.4446    9.3654    8.5403 H       1  UNL1        0.0000
     21 H          -2.1965    7.7498    9.2112 H       1  UNL1        0.0000
     22 C          -0.2069   10.7261    7.5068 C.3     1  UNL1        0.0000
     23 H          -0.3735    9.9936    6.7170 H       1  UNL1        0.0000
     24 H           0.5051   11.4663    7.1461 H       1  UNL1        0.0000
     25 H          -1.1548   11.2312    7.6944 H       1  UNL1        0.0000
@<TRIPOS>BOND
     1    23    22    1
     2    24    22    1
     3    22    25    1
     4    22     9    1
     5    19    18    1
     6    20    18    1
     7    18    21    1
     8    18     8    1
     9     2     1    1
    10     2     3    1
    11     9     8   ar
    12     9     3   ar
    13     8     6   ar
    14     3     4   ar
    15     6     7    1
    16     6     5   ar
    17     4     5   ar
    18     4    10    1
    19    13    10    1
    20     5    14    1
    21    10    11    1
    22    10    12    1
    23    17    14    1
    24    14    15    1
    25    14    16    1
