@<TRIPOS>MOLECULE
1
 25 25 0 0 0
SMALL
GASTEIGER

@<TRIPOS>ATOM
      1 B           2.5904    3.3967    2.2680 B       1  UNL1        0.0000
      2 BR          1.4463    4.6691    3.1094 Br      1  UNL1        0.0000
      3 C           3.5827    2.6889    3.2669 C.ar    1  UNL1        0.0000
      4 C           3.1489    1.5808    4.0108 C.ar    1  UNL1        0.0000
      5 C           4.0267    0.9244    4.8723 C.ar    1  UNL1        0.0000
      6 C           5.3292    1.3832    4.9865 C.ar    1  UNL1        0.0000
      7 H           6.0113    0.8700    5.6506 H       1  UNL1        0.0000
      8 C           5.7737    2.4963    4.2918 C.ar    1  UNL1        0.0000
      9 C           4.8928    3.1552    3.4359 C.ar    1  UNL1        0.0000
     10 C           1.7232    1.1095    3.9202 C.3     1  UNL1        0.0000
     11 H           1.6779    0.0299    3.7815 H       1  UNL1        0.0000
     12 H           1.1900    1.5796    3.0933 H       1  UNL1        0.0000
     13 H           1.1918    1.3500    4.8422 H       1  UNL1        0.0000
     14 C           3.5767   -0.2591    5.6750 C.3     1  UNL1        0.0000
     15 H           4.3767   -0.6049    6.3250 H       1  UNL1        0.0000
     16 H           3.2865   -1.0817    5.0209 H       1  UNL1        0.0000
     17 H           2.7153   -0.0029    6.2907 H       1  UNL1        0.0000
     18 C           7.1786    2.9860    4.4718 C.3     1  UNL1        0.0000
     19 H           7.7184    2.3517    5.1705 H       1  UNL1        0.0000
     20 H           7.1836    4.0061    4.8549 H       1  UNL1        0.0000
     21 H           7.7120    2.9865    3.5214 H       1  UNL1        0.0000
     22 C           5.3437    4.3986    2.7248 C.3     1  UNL1        0.0000
     23 H           4.5662    4.7747    2.0620 H       1  UNL1        0.0000
     24 H           6.2405    4.2088    2.1354 H       1  UNL1        0.0000
     25 H           5.5820    5.1796    3.4477 H       1  UNL1        0.0000
@<TRIPOS>BOND
     1    23    22    1
     2    24    22    1
     3     1     2    1
     4     1     3    1
     5    22     9    1
     6    22    25    1
     7    12    10    1
     8     3     9   ar
     9     3     4   ar
    10     9     8   ar
    11    21    18    1
    12    11    10    1
    13    10     4    1
    14    10    13    1
    15     4     5   ar
    16     8    18    1
    17     8     6   ar
    18    18    20    1
    19    18    19    1
    20     5     6   ar
    21     5    14    1
    22     6     7    1
    23    16    14    1
    24    14    17    1
    25    14    15    1
