@<TRIPOS>MOLECULE
10
 28 27 0 0 0
SMALL
GASTEIGER

@<TRIPOS>ATOM
      1 SI          0.4149    7.7743    2.2247 Si      1  UNL1        0.0000
      2 SI          2.9795    6.0194    2.8585 Si      1  UNL1        0.0000
      3 N           1.2045    6.2217    2.6687 N.3     1  UNL1        0.0000
      4 C           1.2936    9.2054    3.1206 C.3     1  UNL1        0.0000
      5 C           0.5068    7.9246    0.3288 C.3     1  UNL1        0.0000
      6 C          -1.3900    7.6903    2.8097 C.3     1  UNL1        0.0000
      7 C           3.8605    6.9492    1.4502 C.3     1  UNL1        0.0000
      8 C           3.3654    4.1648    2.7240 C.3     1  UNL1        0.0000
      9 C           3.4439    6.6738    4.5853 C.3     1  UNL1        0.0000
     10 B           0.4226    5.1535    2.8500 B       1  UNL1        0.0000
     11 H           2.3433    9.2866    2.8605 H       1  UNL1        0.0000
     12 H           1.2248    9.0995    4.1990 H       1  UNL1        0.0000
     13 H           0.8198   10.1458    2.8569 H       1  UNL1        0.0000
     14 H           0.0989    7.0370   -0.1471 H       1  UNL1        0.0000
     15 H           1.5226    8.0536   -0.0304 H       1  UNL1        0.0000
     16 H          -0.0719    8.7761   -0.0159 H       1  UNL1        0.0000
     17 H          -1.9081    8.6236    2.6112 H       1  UNL1        0.0000
     18 H          -1.4569    7.4983    3.8765 H       1  UNL1        0.0000
     19 H          -1.9334    6.8980    2.3034 H       1  UNL1        0.0000
     20 H           3.5769    6.5544    0.4792 H       1  UNL1        0.0000
     21 H           4.9351    6.8302    1.5471 H       1  UNL1        0.0000
     22 H           3.6500    8.0131    1.4503 H       1  UNL1        0.0000
     23 H           2.8746    3.6004    3.5112 H       1  UNL1        0.0000
     24 H           4.4326    3.9817    2.8043 H       1  UNL1        0.0000
     25 H           3.0327    3.7545    1.7754 H       1  UNL1        0.0000
     26 H           3.3313    7.7495    4.6692 H       1  UNL1        0.0000
     27 H           4.4774    6.4355    4.8166 H       1  UNL1        0.0000
     28 H           2.8234    6.2162    5.3508 H       1  UNL1        0.0000
@<TRIPOS>BOND
     1    14     5    1
     2    15     5    1
     3    16     5    1
     4     5     1    1
     5    20     7    1
     6     7    22    1
     7     7    21    1
     8     7     2    1
     9    25     8    1
    10     1     3    1
    11     1     6    1
    12     1     4    1
    13    19     6    1
    14    17     6    1
    15     3    10    1
    16     3     2    1
    17     8    24    1
    18     8     2    1
    19     8    23    1
    20     6    18    1
    21    13     4    1
    22     2     9    1
    23    11     4    1
    24     4    12    1
    25     9    26    1
    26     9    27    1
    27     9    28    1
