@<TRIPOS>MOLECULE
2
 28 27 0 0 0
SMALL
GASTEIGER

@<TRIPOS>ATOM
      1 SI         10.6877   -1.9249    6.6388 Si      1  UNL1        0.0000
      2 B          10.5990    0.1060    4.8801 B       1  UNL1        0.0000
      3 N          11.3966   -0.8474    5.3956 N.3     1  UNL1        0.0000
      4 SI         13.1099   -0.9039    4.8916 Si      1  UNL1        0.0000
      5 C          10.9191   -1.0718    8.3258 C.3     1  UNL1        0.0000
      6 H          11.9632   -0.8729    8.5467 H       1  UNL1        0.0000
      7 H          10.5218   -1.6817    9.1313 H       1  UNL1        0.0000
      8 H          10.3937   -0.1214    8.3434 H       1  UNL1        0.0000
      9 C           8.8492   -2.1596    6.2201 C.3     1  UNL1        0.0000
     10 H           8.3043   -1.2273    6.3283 H       1  UNL1        0.0000
     11 H           8.3854   -2.8912    6.8745 H       1  UNL1        0.0000
     12 H           8.7113   -2.4955    5.1966 H       1  UNL1        0.0000
     13 C          11.5418   -3.6258    6.5927 C.3     1  UNL1        0.0000
     14 H          12.6058   -3.5676    6.7912 H       1  UNL1        0.0000
     15 H          11.4070   -4.1153    5.6339 H       1  UNL1        0.0000
     16 H          11.1050   -4.2691    7.3499 H       1  UNL1        0.0000
     17 C          13.4775    0.6424    3.8536 C.3     1  UNL1        0.0000
     18 H          12.8858    0.6559    2.9442 H       1  UNL1        0.0000
     19 H          14.5240    0.6821    3.5667 H       1  UNL1        0.0000
     20 H          13.2503    1.5510    4.4018 H       1  UNL1        0.0000
     21 C          14.2015   -0.8917    6.4537 C.3     1  UNL1        0.0000
     22 H          14.0591    0.0242    7.0195 H       1  UNL1        0.0000
     23 H          15.2505   -0.9462    6.1801 H       1  UNL1        0.0000
     24 H          13.9925   -1.7251    7.1159 H       1  UNL1        0.0000
     25 C          13.3737   -2.4652    3.8291 C.3     1  UNL1        0.0000
     26 H          12.5439   -2.6157    3.1448 H       1  UNL1        0.0000
     27 H          13.4777   -3.3638    4.4270 H       1  UNL1        0.0000
     28 H          14.2757   -2.3664    3.2331 H       1  UNL1        0.0000
@<TRIPOS>BOND
     1    18    17    1
     2    26    25    1
     3    28    25    1
     4    19    17    1
     5    25    27    1
     6    25     4    1
     7    17    20    1
     8    17     4    1
     9     2     3    1
    10     4     3    1
    11     4    21    1
    12    12     9    1
    13     3     1    1
    14    15    13    1
    15    23    21    1
    16     9    10    1
    17     9     1    1
    18     9    11    1
    19    21    22    1
    20    21    24    1
    21    13     1    1
    22    13    14    1
    23    13    16    1
    24     1     5    1
    25     5     8    1
    26     5     6    1
    27     5     7    1
