@<TRIPOS>MOLECULE
2
 28 27 0 0 0
SMALL
GASTEIGER

@<TRIPOS>ATOM
      1 N           0.6902    0.6604    2.8848 N.3     1  UNL1        0.0000
      2 B           1.4678    1.7333    2.7061 B       1  UNL1        0.0000
      3 SI         -1.0896    0.8472    2.7077 Si      1  UNL1        0.0000
      4 SI          1.4776   -0.8984    3.3177 Si      1  UNL1        0.0000
      5 C          -1.5026    2.6958    2.8481 C.3     1  UNL1        0.0000
      6 H          -1.0417    3.2682    2.0479 H       1  UNL1        0.0000
      7 H          -1.1569    3.1142    3.7889 H       1  UNL1        0.0000
      8 H          -2.5745    2.8592    2.7916 H       1  UNL1        0.0000
      9 C          -1.5612    0.1945    0.9821 C.3     1  UNL1        0.0000
     10 H          -1.4364   -0.8793    0.8916 H       1  UNL1        0.0000
     11 H          -0.9540    0.6634    0.2125 H       1  UNL1        0.0000
     12 H          -2.5999    0.4212    0.7623 H       1  UNL1        0.0000
     13 C          -1.9547   -0.0887    4.1218 C.3     1  UNL1        0.0000
     14 H          -1.7428   -1.1523    4.1177 H       1  UNL1        0.0000
     15 H          -3.0303    0.0288    4.0344 H       1  UNL1        0.0000
     16 H          -1.6638    0.3046    5.0913 H       1  UNL1        0.0000
     17 C           3.2810   -0.8288    2.7248 C.3     1  UNL1        0.0000
     18 H           3.3470   -0.6159    1.6616 H       1  UNL1        0.0000
     19 H           3.7844   -1.7745    2.9013 H       1  UNL1        0.0000
     20 H           3.8410   -0.0577    3.2466 H       1  UNL1        0.0000
     21 C           1.3998   -1.0542    5.2138 C.3     1  UNL1        0.0000
     22 H           0.3863   -1.1759    5.5816 H       1  UNL1        0.0000
     23 H           1.8195   -0.1716    5.6893 H       1  UNL1        0.0000
     24 H           1.9742   -1.9117    5.5504 H       1  UNL1        0.0000
     25 C           0.5936   -2.3258    2.4209 C.3     1  UNL1        0.0000
     26 H          -0.4558   -2.4059    2.6818 H       1  UNL1        0.0000
     27 H           1.0664   -3.2670    2.6833 H       1  UNL1        0.0000
     28 H           0.6620   -2.2194    1.3425 H       1  UNL1        0.0000
@<TRIPOS>BOND
     1    11     9    1
     2    12     9    1
     3    10     9    1
     4     9     3    1
     5    28    25    1
     6    18    17    1
     7     6     5    1
     8    25    26    1
     9    25    27    1
    10    25     4    1
    11     2     1    1
    12     3     5    1
    13     3     1    1
    14     3    13    1
    15    17    19    1
    16    17    20    1
    17    17     4    1
    18     8     5    1
    19     5     7    1
    20     1     4    1
    21     4    21    1
    22    15    13    1
    23    14    13    1
    24    13    16    1
    25    21    24    1
    26    21    22    1
    27    21    23    1
