@<TRIPOS>MOLECULE
2
 28 27 0 0 0
SMALL
GASTEIGER

@<TRIPOS>ATOM
      1 SI          6.8022    9.8347   10.5588 Si      1  UNL1        0.0000
      2 B           6.8921    7.7824   12.2958 B       1  UNL1        0.0000
      3 N           6.0939    8.7405   11.7883 N.3     1  UNL1        0.0000
      4 SI          4.3744    8.7886   12.2739 Si      1  UNL1        0.0000
      5 C           8.6392   10.0790   10.9819 C.3     1  UNL1        0.0000
      6 H           9.1961    9.1558   10.8522 H       1  UNL1        0.0000
      7 H           8.7753   10.3959   12.0120 H       1  UNL1        0.0000
      8 H           9.0936   10.8293   10.3420 H       1  UNL1        0.0000
      9 C           6.5846    8.9932    8.8639 C.3     1  UNL1        0.0000
     10 H           5.5401    8.8364    8.6128 H       1  UNL1        0.0000
     11 H           7.0731    8.0227    8.8575 H       1  UNL1        0.0000
     12 H           7.0280    9.5890    8.0719 H       1  UNL1        0.0000
     13 C           5.9454   11.5336   10.6122 C.3     1  UNL1        0.0000
     14 H           4.8809   11.4751   10.4162 H       1  UNL1        0.0000
     15 H           6.3801   12.1786    9.8552 H       1  UNL1        0.0000
     16 H           6.0828   12.0214   11.5716 H       1  UNL1        0.0000
     17 C           3.3009    8.7892   10.6994 C.3     1  UNL1        0.0000
     18 H           3.4761    7.8942   10.1095 H       1  UNL1        0.0000
     19 H           3.4917    9.6470   10.0634 H       1  UNL1        0.0000
     20 H           2.2480    8.8051   10.9631 H       1  UNL1        0.0000
     21 C           4.0941   10.3327   13.3562 C.3     1  UNL1        0.0000
     22 H           4.8875   10.4443   14.0896 H       1  UNL1        0.0000
     23 H           3.1574   10.2455   13.8981 H       1  UNL1        0.0000
     24 H           4.0486   11.2474   12.7758 H       1  UNL1        0.0000
     25 C           3.9877    7.2308   13.2890 C.3     1  UNL1        0.0000
     26 H           4.5733    7.1987   14.2024 H       1  UNL1        0.0000
     27 H           4.2062    6.3265   12.7294 H       1  UNL1        0.0000
     28 H           2.9393    7.1990   13.5699 H       1  UNL1        0.0000
@<TRIPOS>BOND
     1    12     9    1
     2    10     9    1
     3    11     9    1
     4     9     1    1
     5    15    13    1
     6    19    17    1
     7    18    17    1
     8     8     5    1
     9    14    13    1
    10     1    13    1
    11     1     5    1
    12     1     3    1
    13    13    16    1
    14    17    20    1
    15    17     4    1
    16     6     5    1
    17     5     7    1
    18     3     4    1
    19     3     2    1
    20     4    25    1
    21     4    21    1
    22    27    25    1
    23    24    21    1
    24    25    28    1
    25    25    26    1
    26    21    23    1
    27    21    22    1
