@<TRIPOS>MOLECULE
1
 65 67 0 0 0
SMALL
GASTEIGER

@<TRIPOS>ATOM
      1 B          -0.2741    3.0058    4.5712 B       1  UNL1        0.0000
      2 N          -1.3461    3.8750    4.0983 N.ar    1  UNL1        0.0000
      3 N          -1.0510    2.0708    5.3778 N.ar    1  UNL1        0.0000
      4 C          -2.5756    3.4690    4.5843 C.ar    1  UNL1        0.0000
      5 H          -3.4809    3.9999    4.3558 H       1  UNL1        0.0000
      6 C          -2.3980    2.3833    5.3542 C.ar    1  UNL1        0.0000
      7 H          -3.1277    1.7939    5.8776 H       1  UNL1        0.0000
      8 C          -0.6782    0.9534    6.1667 C.ar    1  UNL1        0.0000
      9 C          -0.6110    1.0875    7.5602 C.ar    1  UNL1        0.0000
     10 C          -0.3782   -0.0420    8.3334 C.ar    1  UNL1        0.0000
     11 H          -0.3423    0.0408    9.4084 H       1  UNL1        0.0000
     12 C          -0.2026   -1.2781    7.7459 C.ar    1  UNL1        0.0000
     13 H          -0.0314   -2.1505    8.3599 H       1  UNL1        0.0000
     14 C          -0.2483   -1.4002    6.3698 C.ar    1  UNL1        0.0000
     15 H          -0.1116   -2.3746    5.9286 H       1  UNL1        0.0000
     16 C          -0.4846   -0.2974    5.5619 C.ar    1  UNL1        0.0000
     17 C          -0.5844   -0.4345    4.0589 C.3     1  UNL1        0.0000
     18 H          -0.1752    0.4870    3.6223 H       1  UNL1        0.0000
     19 C           0.2202   -1.6085    3.5056 C.3     1  UNL1        0.0000
     20 H           1.2436   -1.5726    3.8706 H       1  UNL1        0.0000
     21 H           0.2388   -1.5548    2.4192 H       1  UNL1        0.0000
     22 H          -0.2239   -2.5629    3.7811 H       1  UNL1        0.0000
     23 C          -2.0528   -0.5701    3.6396 C.3     1  UNL1        0.0000
     24 H          -2.5012   -1.4414    4.1142 H       1  UNL1        0.0000
     25 H          -2.1254   -0.6891    2.5603 H       1  UNL1        0.0000
     26 H          -2.6202    0.3111    3.9263 H       1  UNL1        0.0000
     27 C          -0.8033    2.4315    8.2271 C.3     1  UNL1        0.0000
     28 H          -0.6440    3.2084    7.4710 H       1  UNL1        0.0000
     29 C           0.1988    2.6519    9.3628 C.3     1  UNL1        0.0000
     30 H          -0.0691    2.0679   10.2401 H       1  UNL1        0.0000
     31 H           0.2068    3.7004    9.6510 H       1  UNL1        0.0000
     32 H           1.2014    2.3702    9.0543 H       1  UNL1        0.0000
     33 C          -2.2262    2.5691    8.7790 C.3     1  UNL1        0.0000
     34 H          -2.9608    2.5431    7.9798 H       1  UNL1        0.0000
     35 H          -2.3308    3.5147    9.3071 H       1  UNL1        0.0000
     36 H          -2.4427    1.7593    9.4732 H       1  UNL1        0.0000
     37 C          -1.3474    5.0125    3.2522 C.ar    1  UNL1        0.0000
     38 C          -1.0340    6.2753    3.7774 C.ar    1  UNL1        0.0000
     39 C          -1.1657    7.3888    2.9604 C.ar    1  UNL1        0.0000
     40 H          -0.9440    8.3715    3.3449 H       1  UNL1        0.0000
     41 C          -1.5985    7.2662    1.6532 C.ar    1  UNL1        0.0000
     42 H          -1.7087    8.1465    1.0364 H       1  UNL1        0.0000
     43 C          -1.8914    6.0197    1.1391 C.ar    1  UNL1        0.0000
     44 H          -2.2302    5.9366    0.1183 H       1  UNL1        0.0000
     45 C          -1.7653    4.8793    1.9211 C.ar    1  UNL1        0.0000
     46 C          -2.0920    3.5236    1.3350 C.3     1  UNL1        0.0000
     47 H          -1.6254    2.7615    1.9692 H       1  UNL1        0.0000
     48 C          -3.6058    3.2867    1.3153 C.3     1  UNL1        0.0000
     49 H          -4.0122    3.2605    2.3219 H       1  UNL1        0.0000
     50 H          -3.8274    2.3363    0.8340 H       1  UNL1        0.0000
     51 H          -4.1055    4.0795    0.7619 H       1  UNL1        0.0000
     52 C          -1.5432    3.3701   -0.0857 C.3     1  UNL1        0.0000
     53 H          -2.1450    3.9271   -0.7999 H       1  UNL1        0.0000
     54 H          -1.5630    2.3231   -0.3787 H       1  UNL1        0.0000
     55 H          -0.5192    3.7273   -0.1462 H       1  UNL1        0.0000
     56 C          -0.6083    6.4099    5.2229 C.3     1  UNL1        0.0000
     57 H           0.0046    5.5300    5.4627 H       1  UNL1        0.0000
     58 C          -1.8394    6.4181    6.1368 C.3     1  UNL1        0.0000
     59 H          -2.4983    7.2439    5.8733 H       1  UNL1        0.0000
     60 H          -1.5346    6.5373    7.1747 H       1  UNL1        0.0000
     61 H          -2.3954    5.4890    6.0474 H       1  UNL1        0.0000
     62 C           0.2367    7.6533    5.4906 C.3     1  UNL1        0.0000
     63 H           1.0647    7.7089    4.7884 H       1  UNL1        0.0000
     64 H           0.6414    7.6053    6.4994 H       1  UNL1        0.0000
     65 H          -0.3562    8.5627    5.4161 H       1  UNL1        0.0000
@<TRIPOS>BOND
     1    53    52    1
     2    54    52    1
     3    55    52    1
     4    52    46    1
     5    44    43    1
     6    51    48    1
     7    50    48    1
     8    42    41    1
     9    43    41   ar
    10    43    45   ar
    11    48    46    1
    12    48    49    1
    13    46    45    1
    14    46    47    1
    15    41    39   ar
    16    45    37   ar
    17    21    19    1
    18    25    23    1
    19    39    40    1
    20    39    38   ar
    21    37    38   ar
    22    37     2    1
    23    19    22    1
    24    19    20    1
    25    19    17    1
    26    18    17    1
    27    23    26    1
    28    23    17    1
    29    23    24    1
    30    38    56    1
    31    17    16    1
    32     2     1   ar
    33     2     4   ar
    34     5     4    1
    35     1     3   ar
    36     4     6   ar
    37    63    62    1
    38    56    57    1
    39    56    62    1
    40    56    58    1
    41     6     3   ar
    42     6     7    1
    43     3     8    1
    44    65    62    1
    45    62    64    1
    46    16     8   ar
    47    16    14   ar
    48    59    58    1
    49    15    14    1
    50    61    58    1
    51    58    60    1
    52     8     9   ar
    53    14    12   ar
    54    28    27    1
    55     9    27    1
    56     9    10   ar
    57    12    10   ar
    58    12    13    1
    59    34    33    1
    60    27    33    1
    61    27    29    1
    62    10    11    1
    63    33    35    1
    64    33    36    1
    65    32    29    1
    66    29    31    1
    67    29    30    1
