@<TRIPOS>MOLECULE
4
 28 27 0 0 0
SMALL
GASTEIGER

@<TRIPOS>ATOM
      1 SI          6.5931    5.7777    4.5251 Si      1  UNL1        0.0000
      2 SI          8.1538    7.2439    6.8266 Si      1  UNL1        0.0000
      3 N           6.6861    6.9927    5.8323 N.3     1  UNL1        0.0000
      4 B           5.5861    7.7163    6.1384 B       1  UNL1        0.0000
      5 C           7.5813    6.4376    3.0330 C.3     1  UNL1        0.0000
      6 H           7.3803    7.4926    2.8710 H       1  UNL1        0.0000
      7 H           7.2976    5.9077    2.1290 H       1  UNL1        0.0000
      8 H           8.6521    6.3194    3.1551 H       1  UNL1        0.0000
      9 C           7.2694    4.1196    5.1794 C.3     1  UNL1        0.0000
     10 H           6.6670    3.7548    6.0060 H       1  UNL1        0.0000
     11 H           8.2955    4.1892    5.5234 H       1  UNL1        0.0000
     12 H           7.2371    3.3680    4.3968 H       1  UNL1        0.0000
     13 C           8.0540    6.0421    8.3016 C.3     1  UNL1        0.0000
     14 H           7.1842    6.2664    8.9123 H       1  UNL1        0.0000
     15 H           8.9312    6.1274    8.9357 H       1  UNL1        0.0000
     16 H           7.9748    5.0067    7.9858 H       1  UNL1        0.0000
     17 C           9.7149    6.9393    5.7784 C.3     1  UNL1        0.0000
     18 H           9.7786    7.6340    4.9476 H       1  UNL1        0.0000
     19 H           9.7673    5.9339    5.3776 H       1  UNL1        0.0000
     20 H          10.5957    7.0893    6.3946 H       1  UNL1        0.0000
     21 C           8.2021    9.0516    7.4121 C.3     1  UNL1        0.0000
     22 H           8.0872    9.7447    6.5843 H       1  UNL1        0.0000
     23 H           9.1440    9.2769    7.9031 H       1  UNL1        0.0000
     24 H           7.4053    9.2575    8.1191 H       1  UNL1        0.0000
     25 C           4.7812    5.5337    4.0151 C.3     1  UNL1        0.0000
     26 H           4.3590    6.4429    3.6007 H       1  UNL1        0.0000
     27 H           4.1661    5.2421    4.8598 H       1  UNL1        0.0000
     28 H           4.6923    4.7574    3.2609 H       1  UNL1        0.0000
@<TRIPOS>BOND
     1     7     5    1
     2     6     5    1
     3     5     8    1
     4     5     1    1
     5    28    25    1
     6    26    25    1
     7    25     1    1
     8    25    27    1
     9    12     9    1
    10     1     9    1
    11     1     3    1
    12    18    17    1
    13     9    11    1
    14     9    10    1
    15    19    17    1
    16    17    20    1
    17    17     2    1
    18     3     4    1
    19     3     2    1
    20    22    21    1
    21     2    21    1
    22     2    13    1
    23    21    23    1
    24    21    24    1
    25    16    13    1
    26    13    14    1
    27    13    15    1
