@<TRIPOS>MOLECULE
1,2,3,33,35,37
 92 97 0 0 0
SMALL
GASTEIGER

@<TRIPOS>ATOM
      1 P           4.5884    2.3460    2.7579 P.3     1  UNL1        0.0000
      2 P           6.9814    4.7190    3.7439 P.3     1  UNL1        0.0000
      3 SI          7.4799    1.6038    2.9196 Si      1  UNL1        0.0000
      4 C           9.0147    0.5155    2.4631 C.3     1  UNL1        0.0000
      5 H           9.3688   -0.0277    3.3303 H       1  UNL1        0.0000
      6 H           9.8448    1.0971    2.0899 H       1  UNL1        0.0000
      7 H           8.7436   -0.2091    1.7038 H       1  UNL1        0.0000
      8 C           6.1918    0.2060    3.2068 C.ar    1  UNL1        0.0000
      9 C           4.8660    0.5673    2.9786 C.ar    1  UNL1        0.0000
     10 C           3.8563   -0.3886    2.9632 C.ar    1  UNL1        0.0000
     11 H           2.8390   -0.1143    2.7193 H       1  UNL1        0.0000
     12 C           4.1627   -1.7132    3.2186 C.ar    1  UNL1        0.0000
     13 H           3.3827   -2.4618    3.1986 H       1  UNL1        0.0000
     14 C           5.4709   -2.0772    3.4935 C.ar    1  UNL1        0.0000
     15 H           5.7076   -3.1110    3.7046 H       1  UNL1        0.0000
     16 C           6.4754   -1.1251    3.4697 C.ar    1  UNL1        0.0000
     17 H           7.4954   -1.4283    3.6498 H       1  UNL1        0.0000
     18 C           7.8961    2.2477    4.6958 C.ar    1  UNL1        0.0000
     19 C           7.7177    3.5991    5.0239 C.ar    1  UNL1        0.0000
     20 C           8.0268    4.0188    6.3160 C.ar    1  UNL1        0.0000
     21 H           7.9172    5.0503    6.6004 H       1  UNL1        0.0000
     22 C           8.4878    3.1315    7.2713 C.ar    1  UNL1        0.0000
     23 H           8.7175    3.4882    8.2657 H       1  UNL1        0.0000
     24 C           8.6445    1.7948    6.9534 C.ar    1  UNL1        0.0000
     25 H           8.9906    1.0928    7.6987 H       1  UNL1        0.0000
     26 C           8.3513    1.3710    5.6710 C.ar    1  UNL1        0.0000
     27 H           8.4637    0.3274    5.4188 H       1  UNL1        0.0000
     28 C           3.4154    2.4424    1.3388 C.3     1  UNL1        0.0000
     29 H           2.4442    1.9659    1.5165 H       1  UNL1        0.0000
     30 C           4.1908    1.7499    0.2256 C.3     1  UNL1        0.0000
     31 H           4.3129    0.6870    0.4583 H       1  UNL1        0.0000
     32 H           3.6450    1.8201   -0.7260 H       1  UNL1        0.0000
     33 C           5.5487    2.4190    0.0825 C.3     1  UNL1        0.0000
     34 H           6.1742    1.8817   -0.6335 H       1  UNL1        0.0000
     35 C           5.5091    3.8421   -0.0652 C.3     1  UNL1        0.0000
     36 H           6.1747    4.3598   -0.7583 H       1  UNL1        0.0000
     37 C           4.6131    4.5598    0.7257 C.3     1  UNL1        0.0000
     38 H           4.5694    5.6411    0.5902 H       1  UNL1        0.0000
     39 C           3.2659    3.9324    1.0398 C.3     1  UNL1        0.0000
     40 H           2.6099    4.0723    0.1678 H       1  UNL1        0.0000
     41 H           2.7812    4.4360    1.8842 H       1  UNL1        0.0000
     42 C           3.5644    2.7166    4.2789 C.3     1  UNL1        0.0000
     43 H           3.5257    3.8098    4.3291 H       1  UNL1        0.0000
     44 C           2.1271    2.2028    4.3273 C.3     1  UNL1        0.0000
     45 H           1.5529    2.5737    3.4754 H       1  UNL1        0.0000
     46 H           2.1170    1.1127    4.3080 H       1  UNL1        0.0000
     47 C           1.4637    2.6736    5.6221 C.3     1  UNL1        0.0000
     48 H           1.4276    3.7664    5.6373 H       1  UNL1        0.0000
     49 H           0.4346    2.3085    5.6596 H       1  UNL1        0.0000
     50 C           2.2354    2.1743    6.8401 C.3     1  UNL1        0.0000
     51 H           2.2183    1.0821    6.8546 H       1  UNL1        0.0000
     52 H           1.7555    2.5291    7.7551 H       1  UNL1        0.0000
     53 C           3.6837    2.6522    6.7883 C.3     1  UNL1        0.0000
     54 H           4.2408    2.2597    7.6418 H       1  UNL1        0.0000
     55 H           3.7069    3.7436    6.8508 H       1  UNL1        0.0000
     56 C           4.3396    2.1946    5.4897 C.3     1  UNL1        0.0000
     57 H           4.3569    1.1017    5.4630 H       1  UNL1        0.0000
     58 H           5.3795    2.5341    5.4390 H       1  UNL1        0.0000
     59 C           5.6476    5.6225    4.7566 C.3     1  UNL1        0.0000
     60 H           5.1925    4.7931    5.3142 H       1  UNL1        0.0000
     61 C           4.6060    6.1778    3.7812 C.3     1  UNL1        0.0000
     62 H           5.0174    7.0373    3.2498 H       1  UNL1        0.0000
     63 H           4.3814    5.4123    3.0373 H       1  UNL1        0.0000
     64 C           3.3313    6.6151    4.4965 C.3     1  UNL1        0.0000
     65 H           2.6174    7.0104    3.7692 H       1  UNL1        0.0000
     66 H           2.8631    5.7581    4.9882 H       1  UNL1        0.0000
     67 C           3.6506    7.6719    5.5469 C.3     1  UNL1        0.0000
     68 H           4.0359    8.5694    5.0564 H       1  UNL1        0.0000
     69 H           2.7448    7.9515    6.0899 H       1  UNL1        0.0000
     70 C           4.6968    7.1336    6.5152 C.3     1  UNL1        0.0000
     71 H           4.2900    6.2705    7.0488 H       1  UNL1        0.0000
     72 H           4.9432    7.8959    7.2587 H       1  UNL1        0.0000
     73 C           5.9717    6.7195    5.7763 C.3     1  UNL1        0.0000
     74 H           6.6896    6.3846    6.5211 H       1  UNL1        0.0000
     75 H           6.3800    7.6011    5.2822 H       1  UNL1        0.0000
     76 C           8.3125    6.0249    3.4623 C.3     1  UNL1        0.0000
     77 H           8.9477    5.5298    2.7208 H       1  UNL1        0.0000
     78 C           9.2113    6.4291    4.6281 C.3     1  UNL1        0.0000
     79 H           8.6393    6.9494    5.3954 H       1  UNL1        0.0000
     80 H           9.6632    5.5413    5.0741 H       1  UNL1        0.0000
     81 C          10.3164    7.3631    4.1350 C.3     1  UNL1        0.0000
     82 H          10.9492    7.6548    4.9763 H       1  UNL1        0.0000
     83 H          10.9457    6.8367    3.4130 H       1  UNL1        0.0000
     84 C           9.7203    8.6031    3.4771 C.3     1  UNL1        0.0000
     85 H          10.5177    9.2653    3.1328 H       1  UNL1        0.0000
     86 H           9.1239    9.1522    4.2097 H       1  UNL1        0.0000
     87 C           8.8382    8.1951    2.3019 C.3     1  UNL1        0.0000
     88 H           9.4622    7.6992    1.5545 H       1  UNL1        0.0000
     89 H           8.4003    9.0809    1.8348 H       1  UNL1        0.0000
     90 C           7.7270    7.2584    2.7727 C.3     1  UNL1        0.0000
     91 H           7.1091    6.9348    1.9284 H       1  UNL1        0.0000
     92 H           7.0916    7.8160    3.4594 H       1  UNL1        0.0000
@<TRIPOS>BOND
     1    36    35    1
     2    32    30    1
     3    34    33    1
     4    35    33    1
     5    35    37    1
     6    33    30    1
     7    40    39    1
     8    30    31    1
     9    30    28    1
    10    38    37    1
    11    37    39    1
    12    39    28    1
    13    39    41    1
    14    28    29    1
    15    28     1    1
    16    88    87    1
    17     7     4    1
    18    89    87    1
    19    91    90    1
    20     6     4    1
    21    87    90    1
    22    87    84    1
    23     4     3    1
    24     4     5    1
    25    11    10    1
    26    77    76    1
    27     1     9    1
    28     1    42    1
    29    90    92    1
    30    90    76    1
    31     3     8    1
    32     3    18    1
    33    10     9   ar
    34    10    12   ar
    35     9     8   ar
    36    63    61    1
    37    85    84    1
    38    13    12    1
    39     8    16   ar
    40    12    14   ar
    41    62    61    1
    42    83    81    1
    43    76     2    1
    44    76    78    1
    45    16    14   ar
    46    16    17    1
    47    45    44    1
    48    84    81    1
    49    84    86    1
    50    14    15    1
    51     2    59    1
    52     2    19    1
    53    65    64    1
    54    61    64    1
    55    61    59    1
    56    81    78    1
    57    81    82    1
    58    42    44    1
    59    42    43    1
    60    42    56    1
    61    46    44    1
    62    44    47    1
    63    64    66    1
    64    64    67    1
    65    78    80    1
    66    78    79    1
    67    18    19   ar
    68    18    26   ar
    69    59    60    1
    70    59    73    1
    71    19    20   ar
    72    68    67    1
    73    75    73    1
    74    27    26    1
    75    58    56    1
    76    57    56    1
    77    56    53    1
    78    67    69    1
    79    67    70    1
    80    47    48    1
    81    47    49    1
    82    47    50    1
    83    26    24   ar
    84    73    70    1
    85    73    74    1
    86    20    21    1
    87    20    22   ar
    88    70    71    1
    89    70    72    1
    90    53    50    1
    91    53    55    1
    92    53    54    1
    93    50    51    1
    94    50    52    1
    95    24    22   ar
    96    24    25    1
    97    22    23    1
