@<TRIPOS>MOLECULE
2,3,4,5,34,36,38
 51 54 0 0 0
SMALL
GASTEIGER

@<TRIPOS>ATOM
      1 S          14.6597    9.3300    7.1856 S.2     1  UNL1        0.0000
      2 N          13.3062   11.7065   10.0771 N.3     1  UNL1        0.0000
      3 N          12.6593    9.2980    8.9827 N.am    1  UNL1        0.0000
      4 C          10.3321   11.9852   10.3427 C.3     1  UNL1        0.0000
      5 C           9.9131   10.8623    9.3749 C.3     1  UNL1        0.0000
      6 H          10.3188   10.8962    8.3596 H       1  UNL1        0.0000
      7 C          11.2448   13.0899    9.8176 C.3     1  UNL1        0.0000
      8 H          10.7345   13.6971    9.0614 H       1  UNL1        0.0000
      9 H          11.5000   13.7725   10.6352 H       1  UNL1        0.0000
     10 C          12.5141   12.5528    9.1651 C.3     1  UNL1        0.0000
     11 H          13.1341   13.3932    8.8065 H       1  UNL1        0.0000
     12 H          12.2521   11.9480    8.2879 H       1  UNL1        0.0000
     13 C          13.9624   12.5595   11.0766 C.3     1  UNL1        0.0000
     14 H          14.5189   13.3758   10.5943 H       1  UNL1        0.0000
     15 H          14.6604   11.9730   11.6698 H       1  UNL1        0.0000
     16 H          13.2200   12.9928   11.7498 H       1  UNL1        0.0000
     17 C          14.3188   11.0438    9.2366 C.3     1  UNL1        0.0000
     18 H          15.1482   10.6829    9.8529 H       1  UNL1        0.0000
     19 H          14.7544   11.7474    8.5104 H       1  UNL1        0.0000
     20 C          13.7607    9.8467    8.4883 C.2     1  UNL1        0.0000
     21 C          12.2623    8.0395    8.3545 C.3     1  UNL1        0.0000
     22 H          11.7144    7.4419    9.0988 H       1  UNL1        0.0000
     23 H          13.1686    7.4924    8.0515 H       1  UNL1        0.0000
     24 C          11.4003    8.2380    7.1025 C.3     1  UNL1        0.0000
     25 H          10.4937    8.7900    7.3602 H       1  UNL1        0.0000
     26 H          11.9715    8.8236    6.3789 H       1  UNL1        0.0000
     27 C          11.0126    6.9001    6.4794 C.3     1  UNL1        0.0000
     28 H          11.9176    6.3538    6.2060 H       1  UNL1        0.0000
     29 H          10.4702    6.3022    7.2163 H       1  UNL1        0.0000
     30 C          10.1420    7.0906    5.2435 C.3     1  UNL1        0.0000
     31 H           9.8759    6.1289    4.8117 H       1  UNL1        0.0000
     32 H          10.6728    7.6692    4.4909 H       1  UNL1        0.0000
     33 H           9.2256    7.6174    5.5001 H       1  UNL1        0.0000
     34 B           9.5996    9.4571   10.1691 B       1  UNL1        0.0000
     35 H           9.7188    8.4262    9.5843 H       1  UNL1        0.0000
     36 B           9.7443    9.7913   11.8900 B       1  UNL1        0.0000
     37 H           9.8730    8.9658   12.7435 H       1  UNL1        0.0000
     38 B          10.3552   11.4510   11.9007 B       1  UNL1        0.0000
     39 H          11.1146   11.9942   12.6602 H       1  UNL1        0.0000
     40 B           8.7147   12.1000    9.6429 B       1  UNL1        0.0000
     41 H           8.5706   12.9009    8.7909 H       1  UNL1        0.0000
     42 B           8.2291   10.4334    9.5374 B       1  UNL1        0.0000
     43 H           7.6490   10.0710    8.5785 H       1  UNL1        0.0000
     44 B           8.1267    9.8000   11.1677 B       1  UNL1        0.0000
     45 H           7.3506    8.9579   11.4523 H       1  UNL1        0.0000
     46 B           8.6197   11.1027   12.2962 B       1  UNL1        0.0000
     47 H           8.1928   11.2022   13.3915 H       1  UNL1        0.0000
     48 B           9.0068   12.5079   11.3316 B       1  UNL1        0.0000
     49 H           8.9799   13.6422   11.6535 H       1  UNL1        0.0000
     50 B           7.6336   11.4837   10.8492 B       1  UNL1        0.0000
     51 H           6.5171   11.8468   10.9182 H       1  UNL1        0.0000
@<TRIPOS>BOND
     1    32    30    1
     2    31    30    1
     3    30    33    1
     4    30    27    1
     5    28    27    1
     6    26    24    1
     7    27    24    1
     8    27    29    1
     9    24    25    1
    10    24    21    1
    11     1    20    2
    12    23    21    1
    13    12    10    1
    14    21     3    1
    15    21    22    1
    16     6     5    1
    17    20     3    1
    18    20    17    1
    19    19    17    1
    20    43    42    1
    21    41    40    1
    22    11    10    1
    23     8     7    1
    24    10     7    1
    25    10     2    1
    26    17    18    1
    27    17     2    1
    28     5    40    1
    29     5    34    1
    30     5     4    1
    31    42    40    1
    32    42    50    1
    33    42    44    1
    34    35    34    1
    35    40    50    1
    36     7     4    1
    37     7     9    1
    38     2    13    1
    39    34    36    1
    40     4    48    1
    41     4    38    1
    42    14    13    1
    43    50    51    1
    44    50    48    1
    45    13    15    1
    46    13    16    1
    47    44    45    1
    48    44    36    1
    49    48    49    1
    50    48    46    1
    51    36    38    1
    52    36    37    1
    53    38    39    1
    54    46    47    1
