@<TRIPOS>MOLECULE
1,3,4,5,55,57,59
 72 77 0 0 0
SMALL
GASTEIGER

@<TRIPOS>ATOM
      1 N           6.5623    9.7976    9.7397 N.3     1  UNL1        0.0000
      2 N           5.6062   11.7027   12.7764 N.2     1  UNL1        0.5000
      3 N           7.6264   11.1434   11.7740 N.pl3   1  UNL1        0.5000
      4 C           9.4696    9.1170    9.3880 C.3     1  UNL1        0.0000
      5 C          10.1060    9.6834   10.6715 C.3     1  UNL1        0.0000
      6 H           9.7075    9.3258   11.6250 H       1  UNL1        0.0000
      7 C           8.3660    8.0737    9.5321 C.3     1  UNL1        0.0000
      8 H           8.0558    7.7335    8.5383 H       1  UNL1        0.0000
      9 H           8.7319    7.1843   10.0585 H       1  UNL1        0.0000
     10 C           7.1570    8.5773   10.3174 C.3     1  UNL1        0.0000
     11 H           6.3919    7.7812   10.3683 H       1  UNL1        0.0000
     12 H           7.4617    8.8145   11.3443 H       1  UNL1        0.0000
     13 C           5.8572    9.4504    8.5002 C.3     1  UNL1        0.0000
     14 H           5.1177    8.6550    8.6743 H       1  UNL1        0.0000
     15 H           6.5658    9.1062    7.7462 H       1  UNL1        0.0000
     16 H           5.3413   10.3253    8.1093 H       1  UNL1        0.0000
     17 C           5.5980   10.3088   10.7263 C.3     1  UNL1        0.0000
     18 H           5.0642    9.4694   11.2056 H       1  UNL1        0.0000
     19 H           4.8409   10.9181   10.2310 H       1  UNL1        0.0000
     20 C           6.2734   11.1371   11.8424 C.2     1  UNL1        0.0000
     21 C           4.1768   11.6573   12.8977 C.3     1  UNL1        0.0000
     22 H           3.7311   10.7818   12.3893 H       1  UNL1        0.0000
     23 C           3.5390   12.9257   12.3055 C.3     1  UNL1        0.0000
     24 H           3.8252   13.0243   11.2563 H       1  UNL1        0.0000
     25 H           2.4519   12.8237   12.3532 H       1  UNL1        0.0000
     26 C           3.9714   14.1719   13.0702 C.3     1  UNL1        0.0000
     27 H           3.4996   15.0544   12.6316 H       1  UNL1        0.0000
     28 H           5.0528   14.2838   12.9799 H       1  UNL1        0.0000
     29 C           3.6032   14.0526   14.5447 C.3     1  UNL1        0.0000
     30 H           3.9306   14.9443   15.0839 H       1  UNL1        0.0000
     31 H           2.5170   13.9797   14.6453 H       1  UNL1        0.0000
     32 C           4.2562   12.8112   15.1417 C.3     1  UNL1        0.0000
     33 H           3.9962   12.7173   16.1986 H       1  UNL1        0.0000
     34 H           5.3395   12.9017   15.0594 H       1  UNL1        0.0000
     35 C           3.8155   11.5621   14.3880 C.3     1  UNL1        0.0000
     36 H           2.7338   11.4365   14.4794 H       1  UNL1        0.0000
     37 H           4.2968   10.6797   14.8155 H       1  UNL1        0.0000
     38 C           8.3368   11.6013   12.9760 C.3     1  UNL1        0.0000
     39 H           9.4017   11.3859   12.8091 H       1  UNL1        0.0000
     40 C           8.1997   13.1102   13.2143 C.3     1  UNL1        0.0000
     41 H           7.1521   13.3252   13.4253 H       1  UNL1        0.0000
     42 H           8.5010   13.6392   12.3017 H       1  UNL1        0.0000
     43 C           9.0703   13.5452   14.3894 C.3     1  UNL1        0.0000
     44 H          10.1215   13.3561   14.1554 H       1  UNL1        0.0000
     45 H           8.9544   14.6178   14.5609 H       1  UNL1        0.0000
     46 C           8.6903   12.7740   15.6503 C.3     1  UNL1        0.0000
     47 H           9.3337   13.0756   16.4796 H       1  UNL1        0.0000
     48 H           7.6597   13.0105   15.9223 H       1  UNL1        0.0000
     49 C           8.8156   11.2718   15.4152 C.3     1  UNL1        0.0000
     50 H           8.5222   10.7299   16.3168 H       1  UNL1        0.0000
     51 H           9.8589   11.0251   15.2015 H       1  UNL1        0.0000
     52 C           7.9357   10.8381   14.2472 C.3     1  UNL1        0.0000
     53 H           6.8905   11.0454   14.4692 H       1  UNL1        0.0000
     54 H           8.0429    9.7635   14.0738 H       1  UNL1        0.0000
     55 B          10.6664   11.2141   10.4442 B       1  UNL1        0.0000
     56 H          10.7515   11.9582   11.3757 H       1  UNL1        0.0000
     57 B          10.4413   11.5988    8.7518 B       1  UNL1        0.0000
     58 H          10.4640   12.7020    8.2957 H       1  UNL1        0.0000
     59 B           9.5364   10.2074    8.1556 B       1  UNL1        0.0000
     60 H           8.6864   10.1464    7.3048 H       1  UNL1        0.0000
     61 B          11.0428    8.4635    9.8558 B       1  UNL1        0.0000
     62 H          11.0427    7.3819   10.3248 H       1  UNL1        0.0000
     63 B          11.8371    9.8506   10.5461 B       1  UNL1        0.0000
     64 H          12.4845    9.7076   11.5205 H       1  UNL1        0.0000
     65 B          12.0398   11.0390    9.2767 B       1  UNL1        0.0000
     66 H          12.9572   11.7827    9.2707 H       1  UNL1        0.0000
     67 B          11.3014   10.3820    7.7843 B       1  UNL1        0.0000
     68 H          11.6915   10.6457    6.7017 H       1  UNL1        0.0000
     69 B          10.6656    8.8006    8.1689 B       1  UNL1        0.0000
     70 H          10.4769    7.8928    7.4385 H       1  UNL1        0.0000
     71 B          12.2109    9.3052    8.8916 B       1  UNL1        0.0000
     72 H          13.2392    8.8138    8.5981 H       1  UNL1        0.0000
@<TRIPOS>BOND
     1    68    67    1
     2    60    59    1
     3    70    69    1
     4    15    13    1
     5    67    69    1
     6    16    13    1
     7    59    57    1
     8    59     4    1
     9    69    71    1
    10    69     4    1
    11    58    57    1
    12    13    14    1
    13    13     1    1
    14     8     7    1
    15    72    71    1
    16    57    65    1
    17    57    55    1
    18    71    61    1
    19    71    63    1
    20    66    65    1
    21    65    63    1
    22     4     7    1
    23     4     5    1
    24     7     9    1
    25     7    10    1
    26     1    10    1
    27     1    17    1
    28    61    62    1
    29    61    63    1
    30    61     5    1
    31    19    17    1
    32    10    11    1
    33    10    12    1
    34    55     5    1
    35    55    56    1
    36    63    64    1
    37     5     6    1
    38    17    18    1
    39    17    20    1
    40    24    23    1
    41     3    20    1
    42     3    38    1
    43    20     2    2
    44    42    40    1
    45    23    25    1
    46    23    21    1
    47    23    26    1
    48    22    21    1
    49    27    26    1
    50     2    21    1
    51    39    38    1
    52    21    35    1
    53    38    40    1
    54    38    52    1
    55    28    26    1
    56    26    29    1
    57    40    41    1
    58    40    43    1
    59    54    52    1
    60    44    43    1
    61    52    53    1
    62    52    49    1
    63    35    36    1
    64    35    37    1
    65    35    32    1
    66    43    45    1
    67    43    46    1
    68    29    31    1
    69    29    30    1
    70    29    32    1
    71    34    32    1
    72    32    33    1
    73    51    49    1
    74    49    46    1
    75    49    50    1
    76    46    48    1
    77    46    47    1
