@<TRIPOS>MOLECULE
2,5,6,7
 63 65 0 0 0
SMALL
GASTEIGER

@<TRIPOS>ATOM
      1 SI          4.3397    6.0111    4.2561 Si      1  UNL1        0.0000
      2 SI          1.0517    3.6662    6.0188 Si      1  UNL1        0.0000
      3 O           1.6795    0.9060    4.8743 O.3     1  UNL1        0.0000
      4 O           3.8597    4.5392    6.7741 O.3     1  UNL1        0.0000
      5 N           3.4603    4.6211    3.7362 N.2     1  UNL1        0.0000
      6 C           1.6210    1.9695    4.4029 C.3     1  UNL1        0.0000
      7 C           3.4764    3.4272    3.3436 C.2     1  UNL1        0.0000
      8 C           4.6508    2.4939    3.2284 C.3     1  UNL1        0.0000
      9 C           4.2840    1.2506    2.4176 C.3     1  UNL1        0.0000
     10 H           3.4047    0.7703    2.8363 H       1  UNL1        0.0000
     11 H           5.1057    0.5370    2.4379 H       1  UNL1        0.0000
     12 H           4.0906    1.5130    1.3813 H       1  UNL1        0.0000
     13 C           5.0301    2.0626    4.6534 C.3     1  UNL1        0.0000
     14 H           5.3563    2.9197    5.2347 H       1  UNL1        0.0000
     15 H           5.8472    1.3444    4.6110 H       1  UNL1        0.0000
     16 H           4.1858    1.5982    5.1581 H       1  UNL1        0.0000
     17 C           5.8503    3.1933    2.5796 C.3     1  UNL1        0.0000
     18 H           5.5800    3.6017    1.6077 H       1  UNL1        0.0000
     19 H           6.6613    2.4807    2.4404 H       1  UNL1        0.0000
     20 H           6.2059    3.9990    3.2155 H       1  UNL1        0.0000
     21 C           3.1133    7.3279    4.8794 C.3     1  UNL1        0.0000
     22 H           2.0946    7.0229    4.6649 H       1  UNL1        0.0000
     23 H           3.2870    8.2869    4.4005 H       1  UNL1        0.0000
     24 H           3.1953    7.4791    5.9505 H       1  UNL1        0.0000
     25 C           5.2175    6.7602    2.7241 C.3     1  UNL1        0.0000
     26 H           6.0091    6.1367    2.3239 H       1  UNL1        0.0000
     27 H           5.6514    7.7225    2.9762 H       1  UNL1        0.0000
     28 H           4.4988    6.9295    1.9280 H       1  UNL1        0.0000
     29 C           5.6101    5.5632    5.5894 C.ar    1  UNL1        0.0000
     30 C           6.9534    5.8921    5.4833 C.ar    1  UNL1        0.0000
     31 H           7.2930    6.4428    4.6195 H       1  UNL1        0.0000
     32 C           7.8568    5.5149    6.4584 C.ar    1  UNL1        0.0000
     33 H           8.9025    5.7662    6.3592 H       1  UNL1        0.0000
     34 C           7.4188    4.8199    7.5712 C.ar    1  UNL1        0.0000
     35 H           8.1371    4.5421    8.3253 H       1  UNL1        0.0000
     36 C           6.0799    4.4925    7.7297 C.ar    1  UNL1        0.0000
     37 C           5.1867    4.8600    6.7215 C.ar    1  UNL1        0.0000
     38 C           5.5205    3.8300    8.9715 C.3     1  UNL1        0.0000
     39 C           4.9718    4.9473    9.8846 C.3     1  UNL1        0.0000
     40 H           4.5222    4.5136   10.7755 H       1  UNL1        0.0000
     41 H           4.2124    5.5277    9.3650 H       1  UNL1        0.0000
     42 H           5.7760    5.6175   10.1831 H       1  UNL1        0.0000
     43 C           6.5785    3.0415    9.7437 C.3     1  UNL1        0.0000
     44 H           6.9920    2.2441    9.1300 H       1  UNL1        0.0000
     45 H           6.1458    2.6103   10.6421 H       1  UNL1        0.0000
     46 H           7.3835    3.6980   10.0633 H       1  UNL1        0.0000
     47 C           3.5012    3.4537    7.5430 C.ar    1  UNL1        0.0000
     48 C           4.3394    2.9749    8.5506 C.ar    1  UNL1        0.0000
     49 C           3.9867    1.7945    9.1892 C.ar    1  UNL1        0.0000
     50 H           4.6205    1.3791    9.9557 H       1  UNL1        0.0000
     51 C           2.8150    1.1387    8.8612 C.ar    1  UNL1        0.0000
     52 H           2.5611    0.2137    9.3581 H       1  UNL1        0.0000
     53 C           1.9542    1.6902    7.9309 C.ar    1  UNL1        0.0000
     54 H           1.0188    1.2012    7.7140 H       1  UNL1        0.0000
     55 C           2.2721    2.8588    7.2547 C.ar    1  UNL1        0.0000
     56 C          -0.6539    2.8410    6.3638 C.3     1  UNL1        0.0000
     57 H          -0.8845    2.8302    7.4244 H       1  UNL1        0.0000
     58 H          -0.6963    1.8185    6.0037 H       1  UNL1        0.0000
     59 H          -1.4454    3.3956    5.8688 H       1  UNL1        0.0000
     60 C           0.7844    5.3890    6.8323 C.3     1  UNL1        0.0000
     61 H           0.0859    5.9904    6.2619 H       1  UNL1        0.0000
     62 H           1.7145    5.9354    6.9080 H       1  UNL1        0.0000
     63 H           0.3827    5.2717    7.8350 H       1  UNL1        0.0000
@<TRIPOS>BOND
     1    12     9    1
     2    18    17    1
     3    28    25    1
     4    26    25    1
     5     9    11    1
     6     9    10    1
     7     9     8    1
     8    19    17    1
     9    17    20    1
    10    17     8    1
    11    25    27    1
    12    25     1    1
    13     8     7    1
    14     8    13    1
    15     7     5    2
    16     5     1    1
    17     1    21    1
    18     1    29    1
    19    23    21    1
    20     6     3    1
    21    15    13    1
    22    31    30    1
    23    13    16    1
    24    13    14    1
    25    22    21    1
    26    21    24    1
    27    30    29   ar
    28    30    32   ar
    29    29    37   ar
    30    59    56    1
    31    58    56    1
    32     2    56    1
    33     2    60    1
    34     2    55    1
    35    61    60    1
    36    33    32    1
    37    56    57    1
    38    32    34   ar
    39    37     4    1
    40    37    36   ar
    41     4    47    1
    42    60    62    1
    43    60    63    1
    44    55    47   ar
    45    55    53   ar
    46    47    48   ar
    47    34    36   ar
    48    34    35    1
    49    54    53    1
    50    36    38    1
    51    53    51   ar
    52    48    38    1
    53    48    49   ar
    54    51    49   ar
    55    51    52    1
    56    38    43    1
    57    38    39    1
    58    44    43    1
    59    49    50    1
    60    41    39    1
    61    43    46    1
    62    43    45    1
    63    39    42    1
    64    39    40    1
    65     2     6    0
