@<TRIPOS>MOLECULE
1,2,3
 15 14 0 0 0
SMALL
GASTEIGER

@<TRIPOS>ATOM
      1 S          -0.3649    2.4104    8.8781 S.3     1  UNL1       -0.0908
      2 S          -0.5459    6.0103    8.1813 S.3     1  UNL1       -0.0908
      3 O          -2.5215    3.8544    7.3613 O.3     1  UNL1       -0.3781
      4 C          -1.9478    2.7624    6.6703 C.3     1  UNL1        0.0575
      5 C          -1.5816    1.7171    7.7081 C.3     1  UNL1        0.0274
      6 C          -2.6201    5.0484    6.6157 C.3     1  UNL1        0.0575
      7 C          -1.2897    5.7835    6.5235 C.3     1  UNL1        0.0274
      8 H          -1.0402    3.0647    6.1274 H       1  UNL1        0.0568
      9 H          -2.6771    2.3613    5.9453 H       1  UNL1        0.0568
     10 H          -1.1261    0.8452    7.2374 H       1  UNL1        0.0407
     11 H          -2.4665    1.4103    8.2714 H       1  UNL1        0.0407
     12 H          -3.3407    5.6722    7.1567 H       1  UNL1        0.0568
     13 H          -3.0145    4.8347    5.6093 H       1  UNL1        0.0568
     14 H          -1.4354    6.7743    6.0922 H       1  UNL1        0.0407
     15 H          -0.5661    5.2370    5.9129 H       1  UNL1        0.0407
@<TRIPOS>BOND
     1    13     6    1
     2    15     7    1
     3     9     4    1
     4    14     7    1
     5     8     4    1
     6     7     6    1
     7     7     2    1
     8     6    12    1
     9     6     3    1
    10     4     3    1
    11     4     5    1
    12    10     5    1
    13     5    11    1
    14     5     1    1
