@<TRIPOS>MOLECULE
1,2,3
 15 14 0 0 0
SMALL
GASTEIGER

@<TRIPOS>ATOM
      1 S           4.5460   12.0203   -0.6179 S.3     1  UNL1       -0.0908
      2 S           6.6636   12.9503    2.2697 S.3     1  UNL1       -0.0908
      3 O           5.7050   10.3033    1.4561 O.3     1  UNL1       -0.3781
      4 C           5.1104    9.5494    0.4261 C.3     1  UNL1        0.0575
      5 C           5.1012   10.3001   -0.8991 C.3     1  UNL1        0.0274
      6 C           7.1106   10.4172    1.3917 C.3     1  UNL1        0.0575
      7 C           7.5108   11.3541    2.5153 C.3     1  UNL1        0.0274
      8 H           4.0777    9.3850    0.7576 H       1  UNL1        0.0568
      9 H           5.6228    8.5778    0.3220 H       1  UNL1        0.0568
     10 H           4.4061    9.8358   -1.5994 H       1  UNL1        0.0407
     11 H           6.0919   10.3385   -1.3587 H       1  UNL1        0.0407
     12 H           7.4354   10.8473    0.4305 H       1  UNL1        0.0568
     13 H           7.5727    9.4217    1.5152 H       1  UNL1        0.0568
     14 H           8.5854   11.5382    2.5158 H       1  UNL1        0.0407
     15 H           7.2021   10.9489    3.4820 H       1  UNL1        0.0407
@<TRIPOS>BOND
     1    10     5    1
     2    11     5    1
     3     5     1    1
     4     5     4    1
     5     9     4    1
     6     4     8    1
     7     4     3    1
     8    12     6    1
     9     6     3    1
    10     6    13    1
    11     6     7    1
    12     2     7    1
    13     7    14    1
    14     7    15    1
