@<TRIPOS>MOLECULE
2,3,4,5,6,7
 33 33 0 0 0
SMALL
GASTEIGER

@<TRIPOS>ATOM
      1 SI          2.5406    5.3919    3.3756 Si      1  UNL1        0.0000
      2 N           3.7678    6.5867    2.8597 N.3     1  UNL1        0.0000
      3 B           4.1634    6.7351    1.4795 B       1  UNL1        0.0000
      4 C           4.3539    7.3798    3.8202 C.3     1  UNL1        0.0000
      5 C           5.3575    8.2902    3.5412 C.2     1  UNL1        0.0000
      6 C           5.7378    8.5455    2.2014 C.2     1  UNL1        0.0000
      7 C           5.1838    7.8102    1.1658 C.2     1  UNL1        0.0000
      8 C           1.1502    5.4361    2.0814 C.3     1  UNL1        0.0000
      9 C           1.8229    5.9478    5.0520 C.3     1  UNL1        0.0000
     10 C           3.4560    3.6927    3.5386 C.3     1  UNL1        0.0000
     11 C           3.8378    3.1366    2.1647 C.3     1  UNL1        0.0000
     12 C           2.5256    2.6923    4.2274 C.3     1  UNL1        0.0000
     13 C           4.7322    3.8404    4.3752 C.3     1  UNL1        0.0000
     14 H           3.7071    6.0118    0.6803 H       1  UNL1        0.0000
     15 H           4.1139    7.1565    4.8539 H       1  UNL1        0.0000
     16 H           5.8548    8.8004    4.3573 H       1  UNL1        0.0000
     17 H           6.5233    9.2741    2.0215 H       1  UNL1        0.0000
     18 H           5.5488    8.0038    0.1631 H       1  UNL1        0.0000
     19 H           0.2881    4.8699    2.4183 H       1  UNL1        0.0000
     20 H           0.8292    6.4606    1.9092 H       1  UNL1        0.0000
     21 H           1.4578    5.0263    1.1257 H       1  UNL1        0.0000
     22 H           2.4981    5.7907    5.8881 H       1  UNL1        0.0000
     23 H           1.5509    6.9993    5.0317 H       1  UNL1        0.0000
     24 H           0.9190    5.3870    5.2658 H       1  UNL1        0.0000
     25 H           2.9534    2.9760    1.5538 H       1  UNL1        0.0000
     26 H           4.3496    2.1813    2.2760 H       1  UNL1        0.0000
     27 H           4.5020    3.8177    1.6379 H       1  UNL1        0.0000
     28 H           3.0107    1.7211    4.3128 H       1  UNL1        0.0000
     29 H           2.2613    3.0282    5.2265 H       1  UNL1        0.0000
     30 H           1.6093    2.5648    3.6570 H       1  UNL1        0.0000
     31 H           5.2289    2.8761    4.4759 H       1  UNL1        0.0000
     32 H           4.5071    4.2059    5.3752 H       1  UNL1        0.0000
     33 H           5.4307    4.5293    3.9031 H       1  UNL1        0.0000
@<TRIPOS>BOND
     1    18     7    1
     2    14     3    1
     3    21     8    1
     4     7     3    2
     5     7     6    1
     6     3     2    1
     7    25    11    1
     8    27    11    1
     9    20     8    1
    10    17     6    1
    11     8    19    1
    12     8     1    1
    13    11    26    1
    14    11    10    1
    15     6     5    2
    16     2     1    1
    17     2     4    1
    18     1    10    1
    19     1     9    1
    20    10    12    1
    21    10    13    1
    22     5     4    1
    23     5    16    1
    24    30    12    1
    25     4    15    1
    26    33    13    1
    27    12    28    1
    28    12    29    1
    29    13    31    1
    30    13    32    1
    31    23     9    1
    32     9    24    1
    33     9    22    1
