@<TRIPOS>MOLECULE
1,8,9,10
 46 45 0 0 0
SMALL
GASTEIGER

@<TRIPOS>ATOM
      1 SI          3.6541    6.5221   10.2594 Si      1  UNL1        0.0000
      2 SI          1.4193    5.6654   10.3159 Si      1  UNL1        0.0000
      3 SI          3.8729    7.4049    8.0413 Si      1  UNL1        0.0000
      4 SI          4.9686    4.5076   10.1856 Si      1  UNL1        0.0000
      5 O           7.3329    8.2372   11.4024 O.3     1  UNL1        0.0000
      6 O           1.3644    8.6125   13.1692 O.3     1  UNL1        0.0000
      7 O           4.6317    5.6446   14.1367 O.3     1  UNL1        0.0000
      8 C           6.2194    8.0719   11.6517 C.3     1  UNL1        0.0000
      9 C           2.4080    8.3298   12.7666 C.3     1  UNL1        0.0000
     10 C           4.5011    6.4992   13.3729 C.3     1  UNL1        0.0000
     11 C           0.1150    7.0106    9.8941 C.3     1  UNL1        0.0000
     12 H          -0.9073    6.6883   10.0783 H       1  UNL1        0.0000
     13 H           0.1847    7.3001    8.8498 H       1  UNL1        0.0000
     14 H           0.2890    7.9013   10.4897 H       1  UNL1        0.0000
     15 C           0.9875    4.1912    9.1572 C.3     1  UNL1        0.0000
     16 H          -0.0479    3.8706    9.2462 H       1  UNL1        0.0000
     17 H           1.6168    3.3353    9.3788 H       1  UNL1        0.0000
     18 H           1.1612    4.4576    8.1199 H       1  UNL1        0.0000
     19 C           0.9601    5.0470   12.0744 C.3     1  UNL1        0.0000
     20 H           1.1464    5.8256   12.8083 H       1  UNL1        0.0000
     21 H           1.5710    4.1940   12.3524 H       1  UNL1        0.0000
     22 H          -0.0824    4.7504   12.1687 H       1  UNL1        0.0000
     23 C           3.2567    6.3378    6.5632 C.3     1  UNL1        0.0000
     24 H           2.1773    6.2267    6.6011 H       1  UNL1        0.0000
     25 H           3.6859    5.3430    6.5973 H       1  UNL1        0.0000
     26 H           3.5075    6.7720    5.5979 H       1  UNL1        0.0000
     27 C           2.9601    9.0748    7.7791 C.3     1  UNL1        0.0000
     28 H           3.0079    9.4261    6.7503 H       1  UNL1        0.0000
     29 H           3.3815    9.8514    8.4076 H       1  UNL1        0.0000
     30 H           1.9112    8.9815    8.0440 H       1  UNL1        0.0000
     31 C           5.7200    7.7753    7.6702 C.3     1  UNL1        0.0000
     32 H           6.2957    6.8556    7.6264 H       1  UNL1        0.0000
     33 H           6.1432    8.3826    8.4653 H       1  UNL1        0.0000
     34 H           5.8750    8.3066    6.7341 H       1  UNL1        0.0000
     35 C           5.1350    3.5687    8.5138 C.3     1  UNL1        0.0000
     36 H           5.7248    2.6588    8.5991 H       1  UNL1        0.0000
     37 H           5.6084    4.1968    7.7658 H       1  UNL1        0.0000
     38 H           4.1571    3.2906    8.1339 H       1  UNL1        0.0000
     39 C           4.3705    3.1564   11.4154 C.3     1  UNL1        0.0000
     40 H           5.0443    2.3039   11.4675 H       1  UNL1        0.0000
     41 H           3.3902    2.7826   11.1357 H       1  UNL1        0.0000
     42 H           4.2872    3.5665   12.4165 H       1  UNL1        0.0000
     43 C           6.7809    4.8574   10.7134 C.3     1  UNL1        0.0000
     44 H           6.8051    5.2759   11.7163 H       1  UNL1        0.0000
     45 H           7.2416    5.5839   10.0506 H       1  UNL1        0.0000
     46 H           7.4095    3.9694   10.7136 H       1  UNL1        0.0000
@<TRIPOS>BOND
     1    26    23    1
     2    23    25    1
     3    23    24    1
     4    23     3    1
     5    34    31    1
     6    28    27    1
     7    32    31    1
     8    31     3    1
     9    31    33    1
    10    37    35    1
    11    27     3    1
    12    27    30    1
    13    27    29    1
    14     3     1    1
    15    18    15    1
    16    38    35    1
    17    35    36    1
    18    35     4    1
    19    13    11    1
    20    15    16    1
    21    15    17    1
    22    15     2    1
    23    11    12    1
    24    11     2    1
    25    11    14    1
    26    45    43    1
    27     4     1    1
    28     4    43    1
    29     4    39    1
    30     1     2    1
    31     2    19    1
    32    43    46    1
    33    43    44    1
    34    41    39    1
    35     5     8    1
    36    39    40    1
    37    39    42    1
    38    19    22    1
    39    19    21    1
    40    19    20    1
    41     9     6    1
    42    10     7    1
    43     1    10    0
    44     1     8    0
    45     1     9    0
