@<TRIPOS>MOLECULE
1,2,5,8,10,11,14
 82 82 0 0 0
SMALL
GASTEIGER

@<TRIPOS>ATOM
      1 SI          4.8039    3.7020    2.3484 Si      1  UNL1        0.0000
      2 C           5.2698    1.1861    5.3442 C.3     1  UNL1        0.0000
      3 H           6.2682    0.7931    5.2098 H       1  UNL1        0.0000
      4 SI          6.8460    2.4561    1.9042 Si      1  UNL1        0.0000
      5 C           4.2574    1.2050    4.3632 C.2     1  UNL1        0.0000
      6 H           4.3431    0.8149    3.3618 H       1  UNL1        0.0000
      7 SI          8.4427    2.8815    3.6381 Si      1  UNL1        0.0000
      8 C           3.0596    1.6255    4.9784 C.2     1  UNL1        0.0000
      9 H           2.0801    1.6194    4.5188 H       1  UNL1        0.0000
     10 SI          7.4218    3.8509    5.6225 Si      1  UNL1        0.0000
     11 C           3.3230    1.8358    6.3418 C.2     1  UNL1        0.0000
     12 H           2.5828    2.0334    7.1070 H       1  UNL1        0.0000
     13 SI          2.8177    2.8683    1.2688 Si      1  UNL1        0.0000
     14 C           4.6886    1.5917    6.5708 C.2     1  UNL1        0.0000
     15 H           5.1554    1.5476    7.5438 H       1  UNL1        0.0000
     16 SI          5.1647    5.8211    1.2974 Si      1  UNL1        0.0000
     17 SI          8.0595    2.5264    7.5671 Si      1  UNL1        0.0000
     18 SI          8.5450    5.9188    6.2397 Si      1  UNL1        0.0000
     19 C           6.6149    0.5516    1.7339 C.3     1  UNL1        0.0000
     20 H           7.5203    0.0823    1.3603 H       1  UNL1        0.0000
     21 H           5.8168    0.3009    1.0415 H       1  UNL1        0.0000
     22 H           6.3836    0.0858    2.6854 H       1  UNL1        0.0000
     23 C           7.6215    2.9015    0.2019 C.3     1  UNL1        0.0000
     24 H           8.4984    2.2961   -0.0098 H       1  UNL1        0.0000
     25 H           7.9333    3.9400    0.1866 H       1  UNL1        0.0000
     26 H           6.9218    2.7543   -0.6156 H       1  UNL1        0.0000
     27 C           9.3807    1.2483    4.0351 C.3     1  UNL1        0.0000
     28 H           9.9226    0.8800    3.1687 H       1  UNL1        0.0000
     29 H           8.6927    0.4663    4.3396 H       1  UNL1        0.0000
     30 H          10.1012    1.3816    4.8366 H       1  UNL1        0.0000
     31 C           9.8222    3.9974    2.9090 C.3     1  UNL1        0.0000
     32 H          10.1554    3.6425    1.9385 H       1  UNL1        0.0000
     33 H          10.6914    4.0330    3.5570 H       1  UNL1        0.0000
     34 H           9.4678    5.0141    2.7801 H       1  UNL1        0.0000
     35 C           2.6035    3.4594   -0.5427 C.3     1  UNL1        0.0000
     36 H           1.7016    3.0607   -0.9996 H       1  UNL1        0.0000
     37 H           3.4440    3.1508   -1.1558 H       1  UNL1        0.0000
     38 H           2.5436    4.5417   -0.5924 H       1  UNL1        0.0000
     39 C           1.3095    3.5833    2.2253 C.3     1  UNL1        0.0000
     40 H           0.3845    3.0736    1.9695 H       1  UNL1        0.0000
     41 H           1.1696    4.6350    1.9923 H       1  UNL1        0.0000
     42 H           1.4415    3.5030    3.3028 H       1  UNL1        0.0000
     43 C           2.5458    0.9702    1.1934 C.3     1  UNL1        0.0000
     44 H           1.6971    0.7211    0.5612 H       1  UNL1        0.0000
     45 H           2.3545    0.5410    2.1712 H       1  UNL1        0.0000
     46 H           3.4119    0.4651    0.7777 H       1  UNL1        0.0000
     47 C           6.7552    6.4426    2.1646 C.3     1  UNL1        0.0000
     48 H           6.7848    7.5244    2.2483 H       1  UNL1        0.0000
     49 H           7.6370    6.1409    1.6097 H       1  UNL1        0.0000
     50 H           6.8397    6.0194    3.1663 H       1  UNL1        0.0000
     51 C           5.4991    5.9337   -0.5876 C.3     1  UNL1        0.0000
     52 H           5.8673    6.9174   -0.8702 H       1  UNL1        0.0000
     53 H           4.5995    5.7452   -1.1645 H       1  UNL1        0.0000
     54 H           6.2411    5.2081   -0.9002 H       1  UNL1        0.0000
     55 C           3.7879    7.1302    1.5769 C.3     1  UNL1        0.0000
     56 H           3.9644    8.0244    0.9843 H       1  UNL1        0.0000
     57 H           3.7197    7.4408    2.6137 H       1  UNL1        0.0000
     58 H           2.8161    6.7418    1.2860 H       1  UNL1        0.0000
     59 C           7.9883    0.6048    7.5344 C.3     1  UNL1        0.0000
     60 H           8.3329    0.1956    8.4817 H       1  UNL1        0.0000
     61 H           8.6406    0.2092    6.7629 H       1  UNL1        0.0000
     62 H           6.9963    0.2058    7.3567 H       1  UNL1        0.0000
     63 C           6.8633    3.0933    8.9709 C.3     1  UNL1        0.0000
     64 H           6.5352    2.2663    9.5952 H       1  UNL1        0.0000
     65 H           5.9736    3.5774    8.5654 H       1  UNL1        0.0000
     66 H           7.3459    3.8115    9.6255 H       1  UNL1        0.0000
     67 C           9.8467    2.8077    8.2084 C.3     1  UNL1        0.0000
     68 H          10.0244    2.2878    9.1467 H       1  UNL1        0.0000
     69 H          10.0625    3.8571    8.3721 H       1  UNL1        0.0000
     70 H          10.5727    2.4361    7.4914 H       1  UNL1        0.0000
     71 C          10.4459    5.8590    5.9940 C.3     1  UNL1        0.0000
     72 H          10.9533    6.5985    6.6082 H       1  UNL1        0.0000
     73 H          10.7096    6.0596    4.9613 H       1  UNL1        0.0000
     74 H          10.8521    4.8871    6.2519 H       1  UNL1        0.0000
     75 C           8.2906    6.3546    8.0965 C.3     1  UNL1        0.0000
     76 H           8.6675    7.3494    8.3213 H       1  UNL1        0.0000
     77 H           8.8108    5.6589    8.7454 H       1  UNL1        0.0000
     78 H           7.2444    6.3382    8.3859 H       1  UNL1        0.0000
     79 C           8.0082    7.5209    5.3346 C.3     1  UNL1        0.0000
     80 H           8.4917    8.3897    5.7744 H       1  UNL1        0.0000
     81 H           6.9376    7.6888    5.3900 H       1  UNL1        0.0000
     82 H           8.2871    7.4968    4.2875 H       1  UNL1        0.0000
@<TRIPOS>BOND
     1    53    51    1
     2    37    35    1
     3    36    35    1
     4    54    51    1
     5    52    51    1
     6    26    23    1
     7    38    35    1
     8    51    16    1
     9    35    13    1
    10    24    23    1
    11    25    23    1
    12    23     4    1
    13    44    43    1
    14    46    43    1
    15    56    55    1
    16    21    19    1
    17    43    13    1
    18    43    45    1
    19    13    39    1
    20    13     1    1
    21    58    55    1
    22    16    55    1
    23    16    47    1
    24    16     1    1
    25    20    19    1
    26    55    57    1
    27    49    47    1
    28    19     4    1
    29    19    22    1
    30     4     1    1
    31     4     7    1
    32    32    31    1
    33    40    39    1
    34    41    39    1
    35    47    48    1
    36    47    50    1
    37    39    42    1
    38    34    31    1
    39    31    33    1
    40    31     7    1
    41    28    27    1
    42     6     5    1
    43     7    27    1
    44     7    10    1
    45    27    29    1
    46    27    30    1
    47    82    79    1
    48     5     8    2
    49     5     2    1
    50     9     8    1
    51    73    71    1
    52     8    11    1
    53     3     2    1
    54    79    81    1
    55    79    80    1
    56    79    18    1
    57     2    14    1
    58    10    18    1
    59    10    17    1
    60    71    18    1
    61    71    74    1
    62    71    72    1
    63    18    75    1
    64    11    14    2
    65    11    12    1
    66    14    15    1
    67    61    59    1
    68    62    59    1
    69    70    67    1
    70    59    17    1
    71    59    60    1
    72    17    67    1
    73    17    63    1
    74    75    76    1
    75    75    78    1
    76    75    77    1
    77    67    69    1
    78    67    68    1
    79    65    63    1
    80    63    64    1
    81    63    66    1
    82     1     5    0
