@<TRIPOS>MOLECULE
1,4,7,10,13,15,17
 82 82 0 0 0
SMALL
GASTEIGER

@<TRIPOS>ATOM
      1 SI          1.1736    4.5776   18.9638 Si      1  UNL1        0.0000
      2 SI         -0.9146    5.7976   19.3273 Si      1  UNL1        0.0000
      3 SI         -2.4915    5.3970   17.5558 Si      1  UNL1        0.0000
      4 SI         -1.5338    4.4727   15.5055 Si      1  UNL1        0.0000
      5 SI          0.7940    2.4521   20.0086 Si      1  UNL1        0.0000
      6 SI          3.0968    5.4486   20.1180 Si      1  UNL1        0.0000
      7 C           2.5567    6.3377   14.9340 C.2     1  UNL1        0.0000
      8 H           3.2748    6.0820   14.1688 H       1  UNL1        0.0000
      9 SI         -2.6766    2.4103   14.9349 Si      1  UNL1        0.0000
     10 C           1.2154    6.6950   14.7039 C.2     1  UNL1        0.0000
     11 H           0.7472    6.7519   13.7346 H       1  UNL1        0.0000
     12 SI         -2.2186    5.8301   13.6049 Si      1  UNL1        0.0000
     13 C           0.6918    7.2076   15.9102 C.2     1  UNL1        0.0000
     14 H          -0.2745    7.6687   16.0343 H       1  UNL1        0.0000
     15 C           1.7015    7.1511   16.8788 C.2     1  UNL1        0.0000
     16 H           1.6529    7.5754   17.8658 H       1  UNL1        0.0000
     17 C           2.8510    6.5937   16.2857 C.3     1  UNL1        0.0000
     18 H           3.8332    6.5575   16.7332 H       1  UNL1        0.0000
     19 C          -1.7347    5.3214   20.9985 C.3     1  UNL1        0.0000
     20 H          -2.6213    5.9188   21.1921 H       1  UNL1        0.0000
     21 H          -1.0601    5.4643   21.8374 H       1  UNL1        0.0000
     22 H          -2.0400    4.2812   20.9925 H       1  UNL1        0.0000
     23 C          -0.6936    7.6963   19.5393 C.3     1  UNL1        0.0000
     24 H          -1.6186    8.1638   19.8642 H       1  UNL1        0.0000
     25 H          -0.4015    8.1754   18.6123 H       1  UNL1        0.0000
     26 H           0.0617    7.9306   20.2833 H       1  UNL1        0.0000
     27 C          -3.8451    4.2306   18.2507 C.3     1  UNL1        0.0000
     28 H          -4.1860    4.5465   19.2318 H       1  UNL1        0.0000
     29 H          -3.4700    3.2178   18.3457 H       1  UNL1        0.0000
     30 H          -4.7134    4.1979   17.6018 H       1  UNL1        0.0000
     31 C          -3.4519    7.0288   17.2223 C.3     1  UNL1        0.0000
     32 H          -3.9991    7.3568   18.1015 H       1  UNL1        0.0000
     33 H          -4.1704    6.9163   16.4158 H       1  UNL1        0.0000
     34 H          -2.7737    7.8299   16.9484 H       1  UNL1        0.0000
     35 C           2.2090    1.1717   19.8245 C.3     1  UNL1        0.0000
     36 H           2.0154    0.2767   20.4109 H       1  UNL1        0.0000
     37 H           3.1526    1.5826   20.1713 H       1  UNL1        0.0000
     38 H           2.3471    0.8586   18.7962 H       1  UNL1        0.0000
     39 C           0.3697    2.3635   21.8750 C.3     1  UNL1        0.0000
     40 H          -0.0168    1.3839   22.1479 H       1  UNL1        0.0000
     41 H          -0.3821    3.0945   22.1472 H       1  UNL1        0.0000
     42 H           1.2418    2.5512   22.4927 H       1  UNL1        0.0000
     43 C          -0.7415    1.7961   19.0728 C.3     1  UNL1        0.0000
     44 H          -0.7719    0.7119   19.0359 H       1  UNL1        0.0000
     45 H          -0.7612    2.1698   18.0492 H       1  UNL1        0.0000
     46 H          -1.6546    2.1263   19.5558 H       1  UNL1        0.0000
     47 C           3.1209    4.9441   21.9656 C.3     1  UNL1        0.0000
     48 H           3.9552    5.3908   22.4998 H       1  UNL1        0.0000
     49 H           3.2043    3.8677   22.0716 H       1  UNL1        0.0000
     50 H           2.2094    5.2522   22.4673 H       1  UNL1        0.0000
     51 C           3.3748    7.3430   20.1002 C.3     1  UNL1        0.0000
     52 H           4.1852    7.6274   20.7670 H       1  UNL1        0.0000
     53 H           2.4883    7.8760   20.4286 H       1  UNL1        0.0000
     54 H           3.6295    7.7082   19.1112 H       1  UNL1        0.0000
     55 C           4.6568    4.6627   19.3217 C.3     1  UNL1        0.0000
     56 H           5.5751    5.0906   19.7144 H       1  UNL1        0.0000
     57 H           4.6694    4.7990   18.2436 H       1  UNL1        0.0000
     58 H           4.6918    3.5944   19.5127 H       1  UNL1        0.0000
     59 C          -2.1659    0.8479   15.9152 C.3     1  UNL1        0.0000
     60 H          -2.6440   -0.0385   15.5055 H       1  UNL1        0.0000
     61 H          -2.4668    0.9216   16.9543 H       1  UNL1        0.0000
     62 H          -1.0957    0.6754   15.8925 H       1  UNL1        0.0000
     63 C          -4.5807    2.4859   15.1418 C.3     1  UNL1        0.0000
     64 H          -5.0846    1.7941   14.4714 H       1  UNL1        0.0000
     65 H          -4.9680    3.4773   14.9359 H       1  UNL1        0.0000
     66 H          -4.8717    2.2258   16.1539 H       1  UNL1        0.0000
     67 C          -2.3650    1.9641   13.0933 C.3     1  UNL1        0.0000
     68 H          -2.6591    0.9405   12.8752 H       1  UNL1        0.0000
     69 H          -1.3189    2.0629   12.8216 H       1  UNL1        0.0000
     70 H          -2.9291    2.6105   12.4293 H       1  UNL1        0.0000
     71 C          -4.0353    5.5444   13.0635 C.3     1  UNL1        0.0000
     72 H          -4.2847    6.1247   12.1784 H       1  UNL1        0.0000
     73 H          -4.7250    5.8408   13.8479 H       1  UNL1        0.0000
     74 H          -4.2300    4.5028   12.8346 H       1  UNL1        0.0000
     75 C          -2.1207    7.7413   13.7277 C.3     1  UNL1        0.0000
     76 H          -2.5072    8.2031   12.8216 H       1  UNL1        0.0000
     77 H          -1.1111    8.1089   13.8679 H       1  UNL1        0.0000
     78 H          -2.7198    8.1101   14.5531 H       1  UNL1        0.0000
     79 C          -1.1127    5.3167   12.1158 C.3     1  UNL1        0.0000
     80 H          -0.8960    6.1544   11.4587 H       1  UNL1        0.0000
     81 H          -1.5978    4.5548   11.5150 H       1  UNL1        0.0000
     82 H          -0.1612    4.9039   12.4442 H       1  UNL1        0.0000
@<TRIPOS>BOND
     1    80    79    1
     2    81    79    1
     3    79    82    1
     4    79    12    1
     5    72    71    1
     6    70    67    1
     7    69    67    1
     8    76    75    1
     9    74    71    1
    10    68    67    1
    11    71    12    1
    12    71    73    1
    13    67     9    1
    14    12    75    1
    15    12     4    1
    16    75    77    1
    17    75    78    1
    18    11    10    1
    19     8     7    1
    20    64    63    1
    21    10     7    2
    22    10    13    1
    23     7    17    1
    24     9    63    1
    25     9     4    1
    26     9    59    1
    27    65    63    1
    28    63    66    1
    29    60    59    1
    30     4     3    1
    31    62    59    1
    32    13    14    1
    33    13    15    2
    34    59    61    1
    35    17    18    1
    36    17    15    1
    37    33    31    1
    38    15    16    1
    39    34    31    1
    40    31     3    1
    41    31    32    1
    42     3    27    1
    43     3     2    1
    44    30    27    1
    45    45    43    1
    46    57    55    1
    47    27    29    1
    48    27    28    1
    49    25    23    1
    50    38    35    1
    51     1     2    1
    52     1     5    1
    53     1     6    1
    54    44    43    1
    55    43    46    1
    56    43     5    1
    57    54    51    1
    58    55    58    1
    59    55    56    1
    60    55     6    1
    61     2    23    1
    62     2    19    1
    63    23    24    1
    64    23    26    1
    65    35     5    1
    66    35    37    1
    67    35    36    1
    68     5    39    1
    69    51     6    1
    70    51    53    1
    71    51    52    1
    72     6    47    1
    73    22    19    1
    74    19    20    1
    75    19    21    1
    76    39    41    1
    77    39    40    1
    78    39    42    1
    79    47    49    1
    80    47    50    1
    81    47    48    1
    82     1    15    0
