@<TRIPOS>MOLECULE
1,2,38
 66 69 0 0 0
SMALL
GASTEIGER

@<TRIPOS>ATOM
      1 P           1.9051    0.6331    2.8445 P.3     1  UNL1        0.0000
      2 SI          1.8879    2.9370    4.5221 Si      1  UNL1        0.0000
      3 N           4.3957    2.5384    3.1544 N.pl3   1  UNL1        0.0000
      4 C           1.9813    2.4540    2.5647 C.3     1  UNL1        0.0000
      5 C           3.4049    2.8115    2.2631 C.2     1  UNL1        0.0000
      6 C           3.4806    3.5805    1.1420 C.2     1  UNL1        0.0000
      7 H           4.3647    4.0024    0.7004 H       1  UNL1        0.0000
      8 C           2.1604    3.7779    0.6261 C.ar    1  UNL1        0.0000
      9 C           1.7276    4.4995   -0.4790 C.ar    1  UNL1        0.0000
     10 H           2.4411    5.0145   -1.1067 H       1  UNL1        0.0000
     11 C           0.3734    4.5526   -0.7540 C.ar    1  UNL1        0.0000
     12 H           0.0204    5.1085   -1.6115 H       1  UNL1        0.0000
     13 C          -0.5384    3.9096    0.0696 C.ar    1  UNL1        0.0000
     14 H          -1.5949    3.9754   -0.1473 H       1  UNL1        0.0000
     15 C          -0.1161    3.1888    1.1798 C.ar    1  UNL1        0.0000
     16 H          -0.8535    2.7298    1.8173 H       1  UNL1        0.0000
     17 C           1.2339    3.1051    1.4588 C.ar    1  UNL1        0.0000
     18 C           2.9575   -0.0345    1.4384 C.3     1  UNL1        0.0000
     19 H           3.8234    0.6393    1.4554 H       1  UNL1        0.0000
     20 C           3.4652   -1.4460    1.7221 C.3     1  UNL1        0.0000
     21 H           2.7042   -2.1979    1.5329 H       1  UNL1        0.0000
     22 H           3.7717   -1.5240    2.7651 H       1  UNL1        0.0000
     23 H           4.3252   -1.6725    1.0922 H       1  UNL1        0.0000
     24 C           2.3175    0.0990    0.0610 C.3     1  UNL1        0.0000
     25 H           3.0683   -0.0904   -0.7057 H       1  UNL1        0.0000
     26 H           1.9329    1.1066   -0.0842 H       1  UNL1        0.0000
     27 H           1.5074   -0.6114   -0.0834 H       1  UNL1        0.0000
     28 C           0.1813    0.0772    2.3882 C.3     1  UNL1        0.0000
     29 H          -0.0135    0.4857    1.3898 H       1  UNL1        0.0000
     30 C          -0.8755    0.5986    3.3563 C.3     1  UNL1        0.0000
     31 H          -1.8666    0.4704    2.9216 H       1  UNL1        0.0000
     32 H          -0.7281    1.6489    3.5938 H       1  UNL1        0.0000
     33 H          -0.8416    0.0393    4.2896 H       1  UNL1        0.0000
     34 C           0.1154   -1.4494    2.3682 C.3     1  UNL1        0.0000
     35 H           0.5885   -1.8467    3.2660 H       1  UNL1        0.0000
     36 H           0.6072   -1.8730    1.4974 H       1  UNL1        0.0000
     37 H          -0.9235   -1.7770    2.3545 H       1  UNL1        0.0000
     38 C           4.3453    1.4121    4.0468 C.3     1  UNL1        0.0000
     39 H           5.0404    1.6711    4.8579 H       1  UNL1        0.0000
     40 H           4.7771    0.5305    3.5299 H       1  UNL1        0.0000
     41 C           5.6735    3.1807    2.9753 C.3     1  UNL1        0.0000
     42 H           6.2896    2.6819    2.2150 H       1  UNL1        0.0000
     43 H           6.2169    3.1725    3.9206 H       1  UNL1        0.0000
     44 H           5.5187    4.2180    2.6788 H       1  UNL1        0.0000
     45 C           2.9723    4.4859    4.8222 C.ar    1  UNL1        0.0000
     46 C           3.1336    5.4919    3.8769 C.ar    1  UNL1        0.0000
     47 H           2.6551    5.4024    2.9144 H       1  UNL1        0.0000
     48 C           3.9115    6.6045    4.1449 C.ar    1  UNL1        0.0000
     49 H           4.0283    7.3732    3.3937 H       1  UNL1        0.0000
     50 C           4.5400    6.7375    5.3712 C.ar    1  UNL1        0.0000
     51 H           5.1508    7.6044    5.5797 H       1  UNL1        0.0000
     52 C           4.3743    5.7542    6.3315 C.ar    1  UNL1        0.0000
     53 H           4.8531    5.8551    7.2962 H       1  UNL1        0.0000
     54 C           3.5948    4.6466    6.0532 C.ar    1  UNL1        0.0000
     55 H           3.4539    3.8855    6.8069 H       1  UNL1        0.0000
     56 C           0.1399    3.6817    4.8162 C.ar    1  UNL1        0.0000
     57 C          -0.3344    4.7387    4.0453 C.ar    1  UNL1        0.0000
     58 H           0.2691    5.1182    3.2356 H       1  UNL1        0.0000
     59 C          -1.5730    5.3031    4.2921 C.ar    1  UNL1        0.0000
     60 H          -1.9264    6.1163    3.6742 H       1  UNL1        0.0000
     61 C          -2.3596    4.8291    5.3282 C.ar    1  UNL1        0.0000
     62 H          -3.3272    5.2690    5.5229 H       1  UNL1        0.0000
     63 C          -1.8970    3.7880    6.1151 C.ar    1  UNL1        0.0000
     64 H          -2.5037    3.4156    6.9291 H       1  UNL1        0.0000
     65 C          -0.6603    3.2256    5.8566 C.ar    1  UNL1        0.0000
     66 H          -0.3037    2.4068    6.4642 H       1  UNL1        0.0000
@<TRIPOS>BOND
     1    12    11    1
     2    10     9    1
     3    11     9   ar
     4    11    13   ar
     5    25    24    1
     6     9     8   ar
     7    14    13    1
     8    26    24    1
     9    27    24    1
    10    24    18    1
    11    13    15   ar
    12     8     6    1
    13     8    17   ar
    14     7     6    1
    15    23    20    1
    16     6     5    2
    17    15    17   ar
    18    15    16    1
    19    29    28    1
    20    18    19    1
    21    18    20    1
    22    18     1    1
    23    17     4    1
    24    36    34    1
    25    21    20    1
    26    20    22    1
    27    42    41    1
    28     5     4    1
    29     5     3    1
    30    37    34    1
    31    34    28    1
    32    34    35    1
    33    28     1    1
    34    28    30    1
    35     4     1    1
    36     4     2    1
    37    44    41    1
    38    47    46    1
    39    31    30    1
    40    41     3    1
    41    41    43    1
    42     3    38    1
    43    58    57    1
    44    30    32    1
    45    30    33    1
    46    49    48    1
    47    40    38    1
    48    60    59    1
    49    46    48   ar
    50    46    45   ar
    51    57    59   ar
    52    57    56   ar
    53    38    39    1
    54    48    50   ar
    55    59    61   ar
    56     2    56    1
    57     2    45    1
    58    56    65   ar
    59    45    54   ar
    60    61    62    1
    61    61    63   ar
    62    50    51    1
    63    50    52   ar
    64    65    63   ar
    65    65    66    1
    66    54    52   ar
    67    54    55    1
    68    63    64    1
    69    52    53    1
