@<TRIPOS>MOLECULE
1,2,54
 60 61 0 0 0
SMALL
GASTEIGER

@<TRIPOS>ATOM
      1 P          -2.6020    3.0227    2.4870 P.3     1  UNL1        0.0000
      2 SI          0.0802    1.7139    3.3378 Si      1  UNL1        0.0000
      3 N           1.2792    4.5510    4.1727 N.pl3   1  UNL1        0.0000
      4 C           0.5966   -0.0280    2.6662 C.3     1  UNL1        0.0000
      5 H           0.1547   -0.2662    1.7066 H       1  UNL1        0.0000
      6 H           0.2992   -0.8049    3.3613 H       1  UNL1        0.0000
      7 H           1.6741   -0.0699    2.5567 H       1  UNL1        0.0000
      8 C          -1.4870    1.4101    4.4134 C.ar    1  UNL1        0.0000
      9 C          -2.6750    2.0397    4.0324 C.ar    1  UNL1        0.0000
     10 C          -3.8253    1.8564    4.7947 C.ar    1  UNL1        0.0000
     11 H          -4.7570    2.3189    4.5091 H       1  UNL1        0.0000
     12 C          -3.7968    1.0712    5.9340 C.ar    1  UNL1        0.0000
     13 H          -4.6967    0.9414    6.5191 H       1  UNL1        0.0000
     14 C          -2.6194    0.4540    6.3198 C.ar    1  UNL1        0.0000
     15 H          -2.5949   -0.1566    7.2112 H       1  UNL1        0.0000
     16 C          -1.4780    0.6253    5.5568 C.ar    1  UNL1        0.0000
     17 H          -0.5561    0.1503    5.8575 H       1  UNL1        0.0000
     18 C           1.4703    2.1635    4.5677 C.ar    1  UNL1        0.0000
     19 C           1.9167    3.4840    4.7749 C.ar    1  UNL1        0.0000
     20 C           3.0477    3.6915    5.5789 C.ar    1  UNL1        0.0000
     21 H           3.4206    4.6867    5.7614 H       1  UNL1        0.0000
     22 C           3.7054    2.6387    6.1798 C.ar    1  UNL1        0.0000
     23 H           4.5686    2.8365    6.8004 H       1  UNL1        0.0000
     24 C           3.2586    1.3424    5.9957 C.ar    1  UNL1        0.0000
     25 H           3.7642    0.5134    6.4692 H       1  UNL1        0.0000
     26 C           2.1594    1.1291    5.1861 C.ar    1  UNL1        0.0000
     27 H           1.8236    0.1170    5.0225 H       1  UNL1        0.0000
     28 C          -3.7810    4.5203    2.7836 C.3     1  UNL1        0.0000
     29 C          -3.5361    5.0429    4.2016 C.3     1  UNL1        0.0000
     30 H          -2.4746    5.1424    4.3974 H       1  UNL1        0.0000
     31 H          -3.9560    4.3791    4.9513 H       1  UNL1        0.0000
     32 H          -4.0019    6.0219    4.3151 H       1  UNL1        0.0000
     33 C          -3.2997    5.5787    1.7875 C.3     1  UNL1        0.0000
     34 H          -3.4867    5.2621    0.7634 H       1  UNL1        0.0000
     35 H          -2.2295    5.7437    1.9155 H       1  UNL1        0.0000
     36 H          -3.8175    6.5232    1.9520 H       1  UNL1        0.0000
     37 C          -5.2891    4.3482    2.5987 C.3     1  UNL1        0.0000
     38 H          -5.5499    4.0604    1.5851 H       1  UNL1        0.0000
     39 H          -5.7675    5.3083    2.7982 H       1  UNL1        0.0000
     40 H          -5.7109    3.6279    3.2926 H       1  UNL1        0.0000
     41 C          -3.4981    1.8020    1.3100 C.3     1  UNL1        0.0000
     42 C          -2.4762    0.6846    1.0970 C.3     1  UNL1        0.0000
     43 H          -2.2878    0.1634    2.0328 H       1  UNL1        0.0000
     44 H          -1.5341    1.0954    0.7381 H       1  UNL1        0.0000
     45 H          -2.8475   -0.0347    0.3676 H       1  UNL1        0.0000
     46 C          -3.7736    2.4784   -0.0321 C.3     1  UNL1        0.0000
     47 H          -4.6051    3.1757    0.0256 H       1  UNL1        0.0000
     48 H          -4.0227    1.7275   -0.7822 H       1  UNL1        0.0000
     49 H          -2.8924    3.0169   -0.3693 H       1  UNL1        0.0000
     50 C          -4.7743    1.1511    1.8397 C.3     1  UNL1        0.0000
     51 H          -4.5846    0.6324    2.7754 H       1  UNL1        0.0000
     52 H          -5.1118    0.4133    1.1112 H       1  UNL1        0.0000
     53 H          -5.5801    1.8605    1.9850 H       1  UNL1        0.0000
     54 C          -0.1071    4.4585    3.8252 C.3     1  UNL1        0.0000
     55 H          -0.4740    5.4858    3.6887 H       1  UNL1        0.0000
     56 H          -0.6593    4.0094    4.6672 H       1  UNL1        0.0000
     57 C           1.8314    5.8759    4.3455 C.3     1  UNL1        0.0000
     58 H           1.7518    6.2261    5.3834 H       1  UNL1        0.0000
     59 H           1.2882    6.5796    3.7159 H       1  UNL1        0.0000
     60 H           2.8833    5.8965    4.0517 H       1  UNL1        0.0000
@<TRIPOS>BOND
     1    48    46    1
     2    49    46    1
     3    46    47    1
     4    46    41    1
     5    45    42    1
     6    44    42    1
     7    34    33    1
     8    42    41    1
     9    42    43    1
    10    52    50    1
    11    41    50    1
    12    41     1    1
    13    38    37    1
    14     5     4    1
    15    33    35    1
    16    33    36    1
    17    33    28    1
    18    50    53    1
    19    50    51    1
    20     1    28    1
    21     1     9    1
    22     7     4    1
    23    37    28    1
    24    37    39    1
    25    37    40    1
    26     4     2    1
    27     4     6    1
    28    28    29    1
    29     2     8    1
    30     2    18    1
    31    55    54    1
    32    59    57    1
    33    54     3    1
    34    54    56    1
    35     9     8   ar
    36     9    10   ar
    37    60    57    1
    38     3    57    1
    39     3    19    1
    40    29    32    1
    41    29    30    1
    42    29    31    1
    43    57    58    1
    44     8    16   ar
    45    11    10    1
    46    18    19   ar
    47    18    26   ar
    48    19    20   ar
    49    10    12   ar
    50    27    26    1
    51    26    24   ar
    52    16    17    1
    53    16    14   ar
    54    20    21    1
    55    20    22   ar
    56    12    14   ar
    57    12    13    1
    58    24    22   ar
    59    24    25    1
    60    22    23    1
    61    14    15    1
