@<TRIPOS>MOLECULE
1,2,54
 59 60 0 0 0
SMALL
GASTEIGER

@<TRIPOS>ATOM
      1 P           1.2708    4.0513    4.0416 P.3     1  UNL1        0.0000
      2 SI          2.7714    1.5978    2.8634 Si      1  UNL1        0.0000
      3 N          -0.0403    0.0353    2.9610 N.pl3   1  UNL1        0.0000
      4 C           4.7064    1.5825    2.7883 C.3     1  UNL1        0.0000
      5 H           5.1481    2.2822    3.4880 H       1  UNL1        0.0000
      6 H           5.0569    1.8475    1.7968 H       1  UNL1        0.0000
      7 H           5.0775    0.5931    3.0290 H       1  UNL1        0.0000
      8 C           2.2247    3.0142    1.6809 C.ar    1  UNL1        0.0000
      9 C           1.5182    4.0896    2.2227 C.ar    1  UNL1        0.0000
     10 C           1.0698    5.1073    1.3858 C.ar    1  UNL1        0.0000
     11 H           0.5216    5.9476    1.7820 H       1  UNL1        0.0000
     12 C           1.3156    5.0591    0.0249 C.ar    1  UNL1        0.0000
     13 H           0.9567    5.8543   -0.6139 H       1  UNL1        0.0000
     14 C           2.0181    3.9953   -0.5148 C.ar    1  UNL1        0.0000
     15 H           2.2091    3.9561   -1.5780 H       1  UNL1        0.0000
     16 C           2.4666    2.9836    0.3153 C.ar    1  UNL1        0.0000
     17 H           3.0051    2.1451   -0.1025 H       1  UNL1        0.0000
     18 C           2.2009    0.0243    1.9434 C.ar    1  UNL1        0.0000
     19 C           0.9342   -0.5463    2.1238 C.ar    1  UNL1        0.0000
     20 C           0.6281   -1.7395    1.4618 C.ar    1  UNL1        0.0000
     21 H          -0.3174   -2.2362    1.6066 H       1  UNL1        0.0000
     22 C           1.5390   -2.3455    0.6179 C.ar    1  UNL1        0.0000
     23 H           1.2720   -3.2689    0.1243 H       1  UNL1        0.0000
     24 C           2.7799   -1.7733    0.4150 C.ar    1  UNL1        0.0000
     25 H           3.4966   -2.2351   -0.2482 H       1  UNL1        0.0000
     26 C           3.0908   -0.6059    1.0871 C.ar    1  UNL1        0.0000
     27 H           4.0640   -0.1653    0.9440 H       1  UNL1        0.0000
     28 C          -0.5353    4.6522    4.2727 C.3     1  UNL1        0.0000
     29 C          -1.3544    3.9369    3.1928 C.3     1  UNL1        0.0000
     30 H          -1.3182    4.4759    2.2499 H       1  UNL1        0.0000
     31 H          -2.3975    3.8534    3.4982 H       1  UNL1        0.0000
     32 H          -0.9540    2.9358    3.0182 H       1  UNL1        0.0000
     33 C          -0.8698    6.1426    4.2477 C.3     1  UNL1        0.0000
     34 H          -0.6342    6.6045    3.2939 H       1  UNL1        0.0000
     35 H          -0.3601    6.6855    5.0388 H       1  UNL1        0.0000
     36 H          -1.9432    6.2571    4.4083 H       1  UNL1        0.0000
     37 C          -0.9266    4.1044    5.6499 C.3     1  UNL1        0.0000
     38 H          -0.3877    4.6242    6.4399 H       1  UNL1        0.0000
     39 H          -0.6860    3.0396    5.7111 H       1  UNL1        0.0000
     40 H          -1.9951    4.2279    5.8283 H       1  UNL1        0.0000
     41 C           2.4701    5.4431    4.5497 C.3     1  UNL1        0.0000
     42 C           2.2585    5.7730    6.0265 C.3     1  UNL1        0.0000
     43 H           2.1378    4.8590    6.6030 H       1  UNL1        0.0000
     44 H           1.3812    6.3983    6.1763 H       1  UNL1        0.0000
     45 H           3.1216    6.3116    6.4178 H       1  UNL1        0.0000
     46 C           3.8427    4.7914    4.3648 C.3     1  UNL1        0.0000
     47 H           4.0228    4.5866    3.3106 H       1  UNL1        0.0000
     48 H           3.8904    3.8472    4.9083 H       1  UNL1        0.0000
     49 H           4.6308    5.4492    4.7302 H       1  UNL1        0.0000
     50 C           2.4436    6.7257    3.7223 C.3     1  UNL1        0.0000
     51 H           2.6633    6.5212    2.6777 H       1  UNL1        0.0000
     52 H           3.2154    7.3967    4.1010 H       1  UNL1        0.0000
     53 H           1.4934    7.2446    3.7902 H       1  UNL1        0.0000
     54 C           0.2081    0.9510    3.8997 C.3     1  UNL1        0.0000
     55 H          -0.7372    1.1285    4.4666 H       1  UNL1        0.0000
     56 C          -1.4033   -0.4509    2.7985 C.3     1  UNL1        0.0000
     57 H          -2.0968    0.2392    3.2781 H       1  UNL1        0.0000
     58 H          -1.5352   -1.4363    3.2540 H       1  UNL1        0.0000
     59 H          -1.6607   -0.5070    1.7399 H       1  UNL1        0.0000
@<TRIPOS>BOND
     1    15    14    1
     2    13    12    1
     3    14    12   ar
     4    14    16   ar
     5    25    24    1
     6    17    16    1
     7    12    10   ar
     8    23    22    1
     9    16     8   ar
    10    24    22   ar
    11    24    26   ar
    12    22    20   ar
    13    27    26    1
    14    26    18   ar
    15    10    11    1
    16    10     9   ar
    17    20    21    1
    18    20    19   ar
    19     8     9   ar
    20     8     2    1
    21    59    56    1
    22     6     4    1
    23    18    19   ar
    24    18     2    1
    25    19     3    1
    26     9     1    1
    27    30    29    1
    28    51    50    1
    29     4     2    1
    30     4     7    1
    31     4     5    1
    32    56     3    1
    33    56    58    1
    34    56    57    1
    35     3    54    1
    36    32    29    1
    37    29    31    1
    38    29    28    1
    39    34    33    1
    40    47    46    1
    41    50    53    1
    42    50    52    1
    43    50    41    1
    44    54    55    1
    45     1    28    1
    46     1    41    1
    47    33    28    1
    48    33    36    1
    49    33    35    1
    50    28    37    1
    51    46    41    1
    52    46    49    1
    53    46    48    1
    54    41    42    1
    55    37    39    1
    56    37    40    1
    57    37    38    1
    58    42    44    1
    59    42    45    1
    60    42    43    1
