@<TRIPOS>MOLECULE
2,6,7,9,11
 61 63 0 0 0
SMALL
GASTEIGER

@<TRIPOS>ATOM
      1 S           9.3811   14.7859   13.5525 S.3     1  UNL1        0.0000
      2 N           5.2221   16.8821   11.6868 N.3     1  UNL1        0.0000
      3 N           5.3595   12.0338    8.3819 N.ar    1  UNL1        0.0000
      4 O           6.6322   14.8483   11.6176 O.3     1  UNL1        0.0000
      5 O           7.8540   12.7837   14.2997 O.2     1  UNL1        0.0000
      6 B           5.4022   15.4329   11.7198 B       1  UNL1        0.0000
      7 C           3.9781   14.8882   11.8964 C.2     1  UNL1        0.0000
      8 H           3.6177   13.8791   12.0260 H       1  UNL1        0.0000
      9 C           3.1629   15.9937   12.2014 C.3     1  UNL1        0.0000
     10 H           2.1490   15.9638   12.5650 H       1  UNL1        0.0000
     11 C           3.8757   17.1791   11.9468 C.3     1  UNL1        0.0000
     12 H           3.5737   18.1637   12.2624 H       1  UNL1        0.0000
     13 C           6.2674   17.8906   11.5208 C.3     1  UNL1        0.0000
     14 C           7.2053   17.8113   12.7305 C.3     1  UNL1        0.0000
     15 H           6.6532   18.0097   13.6481 H       1  UNL1        0.0000
     16 H           8.0046   18.5425   12.6398 H       1  UNL1        0.0000
     17 H           7.6427   16.8185   12.7857 H       1  UNL1        0.0000
     18 C           7.0310   17.5578   10.2359 C.3     1  UNL1        0.0000
     19 H           7.4539   16.5616   10.3068 H       1  UNL1        0.0000
     20 H           7.8327   18.2720   10.0675 H       1  UNL1        0.0000
     21 H           6.3455   17.5802    9.3883 H       1  UNL1        0.0000
     22 C           5.6867   19.3005   11.4011 C.3     1  UNL1        0.0000
     23 H           4.9448   19.3405   10.6067 H       1  UNL1        0.0000
     24 H           6.4856   19.9961   11.1570 H       1  UNL1        0.0000
     25 H           5.2331   19.6299   12.3336 H       1  UNL1        0.0000
     26 C           6.7326   13.4413   11.5037 C.3     1  UNL1        0.0000
     27 H           6.0169   12.9649   12.1905 H       1  UNL1        0.0000
     28 C           8.1549   13.0189   11.9250 C.3     1  UNL1        0.0000
     29 H           8.2435   11.9390   11.7980 H       1  UNL1        0.0000
     30 H           8.8892   13.5316   11.3071 H       1  UNL1        0.0000
     31 C           8.3525   13.3689   13.3733 C.2     1  UNL1        0.0000
     32 C           9.4597   15.1332   15.3840 C.3     1  UNL1        0.0000
     33 C          10.1122   13.9467   16.0767 C.3     1  UNL1        0.0000
     34 H          10.2162   14.1559   17.1400 H       1  UNL1        0.0000
     35 H          11.1003   13.7569   15.6619 H       1  UNL1        0.0000
     36 H           9.5036   13.0535   15.9599 H       1  UNL1        0.0000
     37 C          10.3236   16.3837   15.5085 C.3     1  UNL1        0.0000
     38 H          10.4301   16.6537   16.5572 H       1  UNL1        0.0000
     39 H           9.8689   17.2171   14.9775 H       1  UNL1        0.0000
     40 H          11.3130   16.2091   15.0916 H       1  UNL1        0.0000
     41 C           8.0533   15.3902   15.9027 C.3     1  UNL1        0.0000
     42 H           7.4341   14.5043   15.7886 H       1  UNL1        0.0000
     43 H           7.5911   16.2147   15.3641 H       1  UNL1        0.0000
     44 H           8.0975   15.6456   16.9602 H       1  UNL1        0.0000
     45 C           4.3522   11.3444    7.6293 C.3     1  UNL1        0.0000
     46 H           4.8059   10.5786    6.9960 H       1  UNL1        0.0000
     47 H           3.8037   12.0452    6.9941 H       1  UNL1        0.0000
     48 H           3.6527   10.8673    8.3136 H       1  UNL1        0.0000
     49 C           5.3563   12.2341    9.7287 C.ar    1  UNL1        0.0000
     50 H           4.5914   11.7980   10.3435 H       1  UNL1        0.0000
     51 C           6.4209   13.0038   10.1077 C.ar    1  UNL1        0.0000
     52 C           7.1253   13.3348    8.9097 C.ar    1  UNL1        0.0000
     53 C           8.2436   14.1152    8.6143 C.ar    1  UNL1        0.0000
     54 H           8.7773   14.6360    9.3948 H       1  UNL1        0.0000
     55 C           8.6446   14.2272    7.3031 C.ar    1  UNL1        0.0000
     56 H           9.5061   14.8311    7.0581 H       1  UNL1        0.0000
     57 C           7.9570   13.5805    6.2727 C.ar    1  UNL1        0.0000
     58 H           8.3038   13.6940    5.2562 H       1  UNL1        0.0000
     59 C           6.8415   12.8152    6.5295 C.ar    1  UNL1        0.0000
     60 H           6.3004   12.3319    5.7302 H       1  UNL1        0.0000
     61 C           6.4275   12.7014    7.8513 C.ar    1  UNL1        0.0000
@<TRIPOS>BOND
     1    58    57    1
     2    60    59    1
     3    57    59   ar
     4    57    55   ar
     5    59    61   ar
     6    47    45    1
     7    46    45    1
     8    56    55    1
     9    55    53   ar
    10    45    48    1
    11    45     3    1
    12    61     3   ar
    13    61    52   ar
    14     3    49   ar
    15    53    52   ar
    16    53    54    1
    17    52    51   ar
    18    21    18    1
    19    49    51   ar
    20    49    50    1
    21    20    18    1
    22    51    26    1
    23    18    19    1
    24    18    13    1
    25    23    22    1
    26    24    22    1
    27    30    28    1
    28    22    13    1
    29    22    25    1
    30    26     4    1
    31    26    28    1
    32    26    27    1
    33    13     2    1
    34    13    14    1
    35     4     6    1
    36     2     6    1
    37     2    11    1
    38     6     7    2
    39    29    28    1
    40     7     8    1
    41     7     9    1
    42    28    31    1
    43    11     9    1
    44    11    12    1
    45     9    10    1
    46    16    14    1
    47    14    17    1
    48    14    15    1
    49    31     1    1
    50    31     5    2
    51     1    32    1
    52    39    37    1
    53    40    37    1
    54    43    41    1
    55    32    37    1
    56    32    41    1
    57    32    33    1
    58    37    38    1
    59    35    33    1
    60    42    41    1
    61    41    44    1
    62    36    33    1
    63    33    34    1
