@<TRIPOS>MOLECULE
2,3,5,7,8
 23 23 0 0 0
SMALL
GASTEIGER

@<TRIPOS>ATOM
      1 C           1.9563    6.8072   15.9117 C.3     1  UNL1        0.0000
      2 N           2.7027    7.1838   17.1113 N.3     1  UNL1        0.0000
      3 C           4.4148    7.2069   18.6480 C.3     1  UNL1        0.0000
      4 H           5.3691    6.9655   19.0866 H       1  UNL1        0.0000
      5 C           3.5421    8.2383   19.0469 C.2     1  UNL1        0.0000
      6 H           3.7983    8.9038   19.8582 H       1  UNL1        0.0000
      7 B           2.4754    8.3574   17.9502 B       1  UNL1        0.0000
      8 C           3.8382    6.5036   17.5767 C.3     1  UNL1        0.0000
      9 H           4.3498    5.7862   16.9575 H       1  UNL1        0.0000
     10 C           2.3948    5.4461   15.3702 C.3     1  UNL1        0.0000
     11 H           3.4092    5.4766   14.9787 H       1  UNL1        0.0000
     12 H           1.7343    5.1556   14.5572 H       1  UNL1        0.0000
     13 H           2.3313    4.6886   16.1483 H       1  UNL1        0.0000
     14 C           2.1811    7.8916   14.8511 C.3     1  UNL1        0.0000
     15 H           1.8415    8.8508   15.2313 H       1  UNL1        0.0000
     16 H           1.6292    7.6565   13.9449 H       1  UNL1        0.0000
     17 H           3.2387    7.9679   14.6060 H       1  UNL1        0.0000
     18 C           0.4734    6.7330   16.2885 C.3     1  UNL1        0.0000
     19 H           0.3357    5.9909   17.0751 H       1  UNL1        0.0000
     20 H          -0.1290    6.4571   15.4271 H       1  UNL1        0.0000
     21 H           0.1359    7.6951   16.6599 H       1  UNL1        0.0000
     22 O           1.4868    9.2662   17.6853 O.3     1  UNL1        0.0000
     23 H           1.4140    9.9673   18.3287 H       1  UNL1        0.0000
@<TRIPOS>BOND
     1    16    14    1
     2    12    10    1
     3    17    14    1
     4    14    15    1
     5    14     1    1
     6    11    10    1
     7    10     1    1
     8    10    13    1
     9    20    18    1
    10     1    18    1
    11     1     2    1
    12    18    21    1
    13    18    19    1
    14     9     8    1
    15     2     8    1
    16     2     7    1
    17     8     3    1
    18    22     7    1
    19    22    23    1
    20     7     5    2
    21     3     5    1
    22     3     4    1
    23     5     6    1
