@<TRIPOS>MOLECULE
4,6,7,9,11
 58 60 0 0 0
SMALL
GASTEIGER

@<TRIPOS>ATOM
      1 O           5.5093    3.7075    2.8131 O.3     1  UNL1        0.0000
      2 O           5.7399    6.8092    1.9721 O.2     1  UNL1        0.0000
      3 O           6.0238    6.5128    4.1677 O.3     1  UNL1        0.0000
      4 N           3.2848    2.6132    2.9530 N.3     1  UNL1        0.0000
      5 N           8.6300    0.8493    2.4647 N.ar    1  UNL1        0.0000
      6 B           4.6502    2.8386    3.4269 B       1  UNL1        0.0000
      7 C           2.6210    1.7829    3.8689 C.3     1  UNL1        0.0000
      8 H           1.5457    1.7216    3.8885 H       1  UNL1        0.0000
      9 C           3.4721    1.4784    4.9466 C.3     1  UNL1        0.0000
     10 H           3.1531    0.9650    5.8388 H       1  UNL1        0.0000
     11 C           4.7686    1.9448    4.6647 C.2     1  UNL1        0.0000
     12 H           5.5804    1.8095    5.3615 H       1  UNL1        0.0000
     13 C           2.6470    3.2490    1.8009 C.3     1  UNL1        0.0000
     14 C           2.5707    4.7580    2.0630 C.3     1  UNL1        0.0000
     15 H           2.0232    4.9541    2.9837 H       1  UNL1        0.0000
     16 H           2.0638    5.2595    1.2428 H       1  UNL1        0.0000
     17 H           3.5730    5.1673    2.1515 H       1  UNL1        0.0000
     18 C           1.2467    2.6898    1.5453 C.3     1  UNL1        0.0000
     19 H           1.2805    1.6062    1.4554 H       1  UNL1        0.0000
     20 H           0.8632    3.0976    0.6133 H       1  UNL1        0.0000
     21 H           0.5538    2.9639    2.3378 H       1  UNL1        0.0000
     22 C           3.5230    2.9720    0.5760 C.3     1  UNL1        0.0000
     23 H           4.5202    3.3655    0.7456 H       1  UNL1        0.0000
     24 H           3.1053    3.4417   -0.3105 H       1  UNL1        0.0000
     25 H           3.5939    1.8958    0.4147 H       1  UNL1        0.0000
     26 C           6.7887    3.9196    3.3895 C.3     1  UNL1        0.0000
     27 H           6.6591    4.1343    4.4599 H       1  UNL1        0.0000
     28 C           7.6494    2.7041    3.2686 C.ar    1  UNL1        0.0000
     29 C           8.3513    2.0690    4.3374 C.ar    1  UNL1        0.0000
     30 C           8.5267    2.3551    5.6915 C.ar    1  UNL1        0.0000
     31 H           8.0802    3.2360    6.1292 H       1  UNL1        0.0000
     32 C           9.2769    1.4923    6.4572 C.ar    1  UNL1        0.0000
     33 H           9.4201    1.6952    7.5085 H       1  UNL1        0.0000
     34 C           9.8642    0.3508    5.9037 C.ar    1  UNL1        0.0000
     35 H          10.4465   -0.3011    6.5377 H       1  UNL1        0.0000
     36 C           9.7140    0.0443    4.5692 C.ar    1  UNL1        0.0000
     37 H          10.1693   -0.8379    4.1449 H       1  UNL1        0.0000
     38 C           8.9520    0.9080    3.7902 C.ar    1  UNL1        0.0000
     39 C           7.8461    1.9225    2.1633 C.ar    1  UNL1        0.0000
     40 H           7.4629    2.0524    1.1703 H       1  UNL1        0.0000
     41 C           9.0422   -0.1798    1.5544 C.3     1  UNL1        0.0000
     42 H           8.7430   -1.1604    1.9307 H       1  UNL1        0.0000
     43 H          10.1282   -0.1696    1.4255 H       1  UNL1        0.0000
     44 H           8.5668   -0.0186    0.5898 H       1  UNL1        0.0000
     45 C           7.3865    5.1972    2.7400 C.3     1  UNL1        0.0000
     46 C           8.6428    5.6234    3.5012 C.3     1  UNL1        0.0000
     47 H           9.0814    6.5039    3.0368 H       1  UNL1        0.0000
     48 H           9.3723    4.8168    3.4832 H       1  UNL1        0.0000
     49 H           8.4053    5.8547    4.5361 H       1  UNL1        0.0000
     50 C           7.6914    4.9983    1.2585 C.3     1  UNL1        0.0000
     51 H           6.8205    4.5901    0.7537 H       1  UNL1        0.0000
     52 H           8.5332    4.3230    1.1357 H       1  UNL1        0.0000
     53 H           7.9313    5.9549    0.8007 H       1  UNL1        0.0000
     54 C           6.3018    6.2584    2.8811 C.2     1  UNL1        0.0000
     55 C           4.9946    7.4621    4.4032 C.3     1  UNL1        0.0000
     56 H           5.2379    8.4120    3.9225 H       1  UNL1        0.0000
     57 H           4.9321    7.5832    5.4815 H       1  UNL1        0.0000
     58 H           4.0460    7.0993    4.0021 H       1  UNL1        0.0000
@<TRIPOS>BOND
     1    24    22    1
     2    25    22    1
     3    22    23    1
     4    22    13    1
     5    44    41    1
     6    20    18    1
     7    51    50    1
     8    53    50    1
     9    52    50    1
    10    40    39    1
    11    16    14    1
    12    50    45    1
    13    43    41    1
    14    19    18    1
    15    18    13    1
    16    18    21    1
    17    41    42    1
    18    41     5    1
    19    13    14    1
    20    13     4    1
    21     2    54    2
    22    14    17    1
    23    14    15    1
    24    39     5   ar
    25    39    28   ar
    26     5    38   ar
    27    45    54    1
    28    45    26    1
    29    45    46    1
    30     1    26    1
    31     1     6    1
    32    54     3    1
    33     4     6    1
    34     4     7    1
    35    47    46    1
    36    28    26    1
    37    28    29   ar
    38    26    27    1
    39     6    11    2
    40    48    46    1
    41    46    49    1
    42    38    29   ar
    43    38    36   ar
    44     7     8    1
    45     7     9    1
    46    56    55    1
    47    58    55    1
    48    37    36    1
    49     3    55    1
    50    29    30   ar
    51    55    57    1
    52    36    34   ar
    53    11     9    1
    54    11    12    1
    55     9    10    1
    56    30    31    1
    57    30    32   ar
    58    34    32   ar
    59    34    35    1
    60    32    33    1
