@<TRIPOS>MOLECULE
1,2,3,4
 70 72 0 0 0
SMALL
GASTEIGER

@<TRIPOS>ATOM
      1 S           6.2356    0.9032   16.6154 S.3     1  UNL1       -0.1168
      2 S           2.5636    0.4955   14.2409 S.3     1  UNL1       -0.1168
      3 O           4.3686    2.7606   15.4182 O.3     1  UNL1       -0.2864
      4 O           5.2338    0.1660   13.1837 O.3     1  UNL1       -0.2864
      5 C           4.5428    3.0396   16.6907 C.ar    1  UNL1        0.1959
      6 C           5.4727    2.2925   17.4394 C.ar    1  UNL1        0.0554
      7 C           5.7710    2.5517   18.7644 C.ar    1  UNL1       -0.0417
      8 H           6.5118    1.9478   19.2658 H       1  UNL1        0.0632
      9 C           5.1121    3.5743   19.4178 C.ar    1  UNL1       -0.0489
     10 C           4.1362    4.2806   18.7162 C.ar    1  UNL1       -0.0514
     11 H           3.6105    5.0518   19.2562 H       1  UNL1        0.0624
     12 C           3.8179    4.0442   17.3919 C.ar    1  UNL1        0.0060
     13 C           5.4057    3.9102   20.8499 C.3     1  UNL1       -0.0397
     14 H           6.1960    3.2744   21.2400 H       1  UNL1        0.0278
     15 H           4.5164    3.7756   21.4652 H       1  UNL1        0.0278
     16 H           5.7192    4.9494   20.9411 H       1  UNL1        0.0278
     17 C           2.7146    4.8162   16.6804 C.3     1  UNL1       -0.0090
     18 C           1.6831    3.8146   16.1408 C.3     1  UNL1       -0.0559
     19 H           0.9035    4.3348   15.5873 H       1  UNL1        0.0238
     20 H           1.2190    3.2769   16.9657 H       1  UNL1        0.0238
     21 H           2.1558    3.0914   15.4812 H       1  UNL1        0.0238
     22 C           3.3330    5.6158   15.5280 C.3     1  UNL1       -0.0559
     23 H           4.0142    6.3692   15.9177 H       1  UNL1        0.0238
     24 H           2.5553    6.1165   14.9529 H       1  UNL1        0.0238
     25 H           3.8994    4.9563   14.8761 H       1  UNL1        0.0238
     26 C           1.9779    5.7975   17.5982 C.3     1  UNL1       -0.0559
     27 H           2.6479    6.5665   17.9751 H       1  UNL1        0.0238
     28 H           1.5159    5.2823   18.4372 H       1  UNL1        0.0238
     29 H           1.1900    6.2899   17.0310 H       1  UNL1        0.0238
     30 C           4.8404   -0.2959   16.9169 C.3     1  UNL1        0.0238
     31 H           4.9637   -0.6508   17.9431 H       1  UNL1        0.0428
     32 H           3.9236    0.2868   16.8405 H       1  UNL1        0.0428
     33 C           4.8963   -1.4358   15.9509 C.ar    1  UNL1       -0.0333
     34 C           6.0814   -2.1594   15.8582 C.ar    1  UNL1       -0.0575
     35 H           6.9208   -1.8525   16.4653 H       1  UNL1        0.0621
     36 C           6.1957   -3.2416   15.0077 C.ar    1  UNL1       -0.0615
     37 H           7.1248   -3.7876   14.9494 H       1  UNL1        0.0618
     38 C           5.1149   -3.6151   14.2272 C.ar    1  UNL1       -0.0615
     39 H           5.1890   -4.4611   13.5607 H       1  UNL1        0.0618
     40 C           3.9376   -2.8969   14.2995 C.ar    1  UNL1       -0.0575
     41 H           3.0988   -3.1794   13.6792 H       1  UNL1        0.0621
     42 C           3.8035   -1.8137   15.1634 C.ar    1  UNL1       -0.0333
     43 C           2.4992   -1.0930   15.1941 C.3     1  UNL1        0.0238
     44 H           2.1867   -0.8073   16.1971 H       1  UNL1        0.0428
     45 H           1.7146   -1.6890   14.7287 H       1  UNL1        0.0428
     46 C           2.9791   -0.1764   12.6396 C.ar    1  UNL1        0.0554
     47 C           4.3468   -0.2713   12.3185 C.ar    1  UNL1        0.1959
     48 C           4.6760   -0.8615   11.0653 C.ar    1  UNL1        0.0060
     49 C           3.6402   -1.2505   10.2347 C.ar    1  UNL1       -0.0514
     50 H           3.8668   -1.6912    9.2770 H       1  UNL1        0.0624
     51 C           2.2915   -1.1102   10.5559 C.ar    1  UNL1       -0.0489
     52 C           1.9671   -0.5723   11.7861 C.ar    1  UNL1       -0.0417
     53 H           0.9380   -0.4568   12.0946 H       1  UNL1        0.0632
     54 C           1.2304   -1.5651    9.5976 C.3     1  UNL1       -0.0397
     55 H           1.1439   -2.6521    9.6156 H       1  UNL1        0.0278
     56 H           1.4764   -1.2683    8.5797 H       1  UNL1        0.0278
     57 H           0.2641   -1.1433    9.8629 H       1  UNL1        0.0278
     58 C           6.1339   -1.0893   10.6812 C.3     1  UNL1       -0.0090
     59 C           6.7597   -2.0299   11.7178 C.3     1  UNL1       -0.0559
     60 H           6.6586   -1.6143   12.7152 H       1  UNL1        0.0238
     61 H           7.8165   -2.1777   11.5052 H       1  UNL1        0.0238
     62 H           6.2616   -2.9970   11.6949 H       1  UNL1        0.0238
     63 C           6.9008    0.2395   10.6627 C.3     1  UNL1       -0.0559
     64 H           6.5309    0.8787    9.8621 H       1  UNL1        0.0238
     65 H           7.9574    0.0483   10.4865 H       1  UNL1        0.0238
     66 H           6.8016    0.7621   11.6144 H       1  UNL1        0.0238
     67 C           6.2964   -1.7366    9.3006 C.3     1  UNL1       -0.0559
     68 H           5.8253   -2.7161    9.2642 H       1  UNL1        0.0238
     69 H           7.3569   -1.8687    9.0955 H       1  UNL1        0.0238
     70 H           5.8799   -1.1094    8.5152 H       1  UNL1        0.0238
@<TRIPOS>BOND
     1    70    67    1
     2    56    54    1
     3    69    67    1
     4    68    67    1
     5    50    49    1
     6    67    58    1
     7    54    55    1
     8    54    57    1
     9    54    51    1
    10    64    63    1
    11    49    51   ar
    12    49    48   ar
    13    65    63    1
    14    51    52   ar
    15    63    58    1
    16    63    66    1
    17    58    48    1
    18    58    59    1
    19    48    47   ar
    20    61    59    1
    21    62    59    1
    22    59    60    1
    23    52    53    1
    24    52    46   ar
    25    47    46   ar
    26    47     4    1
    27    46     2    1
    28    39    38    1
    29    41    40    1
    30    38    40   ar
    31    38    36   ar
    32     2    43    1
    33    40    42   ar
    34    45    43    1
    35    25    22    1
    36    37    36    1
    37    24    22    1
    38    36    34   ar
    39    42    43    1
    40    42    33   ar
    41    43    44    1
    42     3     5    1
    43    21    18    1
    44    22    23    1
    45    22    17    1
    46    19    18    1
    47    34    33   ar
    48    34    35    1
    49    33    30    1
    50    18    17    1
    51    18    20    1
    52     1    30    1
    53     1     6    1
    54    17    12    1
    55    17    26    1
    56     5    12   ar
    57     5     6   ar
    58    32    30    1
    59    30    31    1
    60    29    26    1
    61    12    10   ar
    62     6     7   ar
    63    26    27    1
    64    26    28    1
    65    10    11    1
    66    10     9   ar
    67     7     8    1
    68     7     9   ar
    69     9    13    1
    70    13    16    1
    71    13    14    1
    72    13    15    1
