@<TRIPOS>MOLECULE
1,2,3,4
 63 64 0 0 0
SMALL
GASTEIGER

@<TRIPOS>ATOM
      1 S          -2.5405   -0.7105    4.7017 S.3     1  UNL1       -0.1214
      2 S           0.8059   -0.5212    2.5273 S.3     1  UNL1       -0.1214
      3 O          -0.7623    1.5425    4.0747 O.3     1  UNL1       -0.2864
      4 O           0.7485   -1.4692    5.2558 O.3     1  UNL1       -0.2864
      5 C          -1.9194    1.6710    3.4697 C.ar    1  UNL1        0.1959
      6 C          -2.9197    0.6978    3.6589 C.ar    1  UNL1        0.0551
      7 C          -4.1827    0.7946    3.0992 C.ar    1  UNL1       -0.0417
      8 H          -4.9160    0.0313    3.3149 H       1  UNL1        0.0632
      9 C          -4.4839    1.8595    2.2747 C.ar    1  UNL1       -0.0489
     10 C          -3.4897    2.8069    2.0334 C.ar    1  UNL1       -0.0514
     11 H          -3.7426    3.6223    1.3749 H       1  UNL1        0.0624
     12 C          -2.2277    2.7508    2.5924 C.ar    1  UNL1        0.0060
     13 C          -5.8354    2.0039    1.6397 C.3     1  UNL1       -0.0397
     14 H          -6.2709    2.9716    1.8848 H       1  UNL1        0.0278
     15 H          -6.5089    1.2233    1.9841 H       1  UNL1        0.0278
     16 H          -5.7567    1.9398    0.5543 H       1  UNL1        0.0278
     17 C          -1.1605    3.7909    2.2762 C.3     1  UNL1       -0.0090
     18 C           0.0253    3.0798    1.6086 C.3     1  UNL1       -0.0559
     19 H           0.3924    2.2757    2.2409 H       1  UNL1        0.0238
     20 H           0.8361    3.7831    1.4279 H       1  UNL1        0.0238
     21 H          -0.2817    2.6537    0.6553 H       1  UNL1        0.0238
     22 C          -0.7083    4.4682    3.5759 C.3     1  UNL1       -0.0559
     23 H          -0.3543    3.7279    4.2881 H       1  UNL1        0.0238
     24 H          -1.5413    5.0035    4.0271 H       1  UNL1        0.0238
     25 H           0.0905    5.1797    3.3718 H       1  UNL1        0.0238
     26 C          -1.6519    4.8852    1.3226 C.3     1  UNL1       -0.0559
     27 H          -0.8412    5.5889    1.1432 H       1  UNL1        0.0238
     28 H          -2.4857    5.4364    1.7510 H       1  UNL1        0.0238
     29 H          -1.9520    4.4696    0.3634 H       1  UNL1        0.0238
     30 C          -2.5942   -2.0658    3.4410 C.3     1  UNL1       -0.0008
     31 H          -3.0434   -2.9055    3.9717 H       1  UNL1        0.0380
     32 H          -3.2710   -1.7332    2.6546 H       1  UNL1        0.0380
     33 C          -1.2452   -2.4893    2.8763 C.3     1  UNL1       -0.0343
     34 H          -1.3948   -3.4434    2.3609 H       1  UNL1        0.0281
     35 H          -0.5612   -2.6845    3.7060 H       1  UNL1        0.0281
     36 C          -0.6196   -1.5049    1.8887 C.3     1  UNL1       -0.0008
     37 H          -1.3344   -0.7479    1.5633 H       1  UNL1        0.0380
     38 H          -0.2379   -2.0296    1.0129 H       1  UNL1        0.0380
     39 C           1.8420   -1.8108    3.2032 C.ar    1  UNL1        0.0551
     40 C           1.6549   -2.1229    4.5645 C.ar    1  UNL1        0.1959
     41 C           2.4387   -3.1829    5.0993 C.ar    1  UNL1        0.0060
     42 C           3.3729   -3.7852    4.2779 C.ar    1  UNL1       -0.0514
     43 H           3.9857   -4.5822    4.6681 H       1  UNL1        0.0624
     44 C           3.5771   -3.4279    2.9453 C.ar    1  UNL1       -0.0489
     45 C           2.7862   -2.4326    2.4066 C.ar    1  UNL1       -0.0417
     46 H           2.8871   -2.1306    1.3748 H       1  UNL1        0.0632
     47 C           4.6273   -4.1246    2.1312 C.3     1  UNL1       -0.0397
     48 H           4.5836   -3.8076    1.0924 H       1  UNL1        0.0278
     49 H           4.4918   -5.2046    2.1727 H       1  UNL1        0.0278
     50 H           5.6211   -3.8994    2.5188 H       1  UNL1        0.0278
     51 C           2.1932   -3.6490    6.5284 C.3     1  UNL1       -0.0090
     52 C           0.7390   -4.1300    6.6333 C.3     1  UNL1       -0.0559
     53 H           0.5617   -4.9488    5.9374 H       1  UNL1        0.0238
     54 H           0.0563   -3.3154    6.4039 H       1  UNL1        0.0238
     55 H           0.5300   -4.4778    7.6425 H       1  UNL1        0.0238
     56 C           2.4217   -2.4864    7.5030 C.3     1  UNL1       -0.0559
     57 H           1.7511   -1.6603    7.2724 H       1  UNL1        0.0238
     58 H           3.4535   -2.1420    7.4437 H       1  UNL1        0.0238
     59 H           2.2240   -2.8129    8.5218 H       1  UNL1        0.0238
     60 C           3.1093   -4.8049    6.9439 C.3     1  UNL1       -0.0559
     61 H           2.8816   -5.0871    7.9698 H       1  UNL1        0.0238
     62 H           4.1567   -4.5146    6.9008 H       1  UNL1        0.0238
     63 H           2.9536   -5.6778    6.3143 H       1  UNL1        0.0238
@<TRIPOS>BOND
     1    29    26    1
     2    16    13    1
     3    21    18    1
     4    38    36    1
     5    48    47    1
     6    27    26    1
     7    26    28    1
     8    26    17    1
     9    46    45    1
    10    11    10    1
    11    20    18    1
    12    37    36    1
    13    18    19    1
    14    18    17    1
    15    13    14    1
    16    13    15    1
    17    13     9    1
    18    36     2    1
    19    36    33    1
    20    10     9   ar
    21    10    12   ar
    22    47    49    1
    23    47    50    1
    24    47    44    1
    25     9     7   ar
    26    17    12    1
    27    17    22    1
    28    34    33    1
    29    45    44   ar
    30    45    39   ar
    31     2    39    1
    32    12     5   ar
    33    32    30    1
    34    33    30    1
    35    33    35    1
    36    44    42   ar
    37     7     8    1
    38     7     6   ar
    39    39    40   ar
    40    25    22    1
    41    30    31    1
    42    30     1    1
    43     5     6   ar
    44     5     3    1
    45    22    24    1
    46    22    23    1
    47     6     1    1
    48    42    43    1
    49    42    41   ar
    50    40    41   ar
    51    40     4    1
    52    41    51    1
    53    53    52    1
    54    63    60    1
    55    54    52    1
    56    51    52    1
    57    51    60    1
    58    51    56    1
    59    52    55    1
    60    62    60    1
    61    60    61    1
    62    57    56    1
    63    58    56    1
    64    56    59    1
