@<TRIPOS>MOLECULE
1,2,3,4
 70 72 0 0 0
SMALL
GASTEIGER

@<TRIPOS>ATOM
      1 S           6.1953    0.9424   16.8462 S.3     1  UNL1       -0.1168
      2 S           2.5866    0.4934   14.2393 S.3     1  UNL1       -0.1168
      3 O           4.2081    2.7147   15.6415 O.3     1  UNL1       -0.2864
      4 O           5.2467   -0.0141   13.1500 O.3     1  UNL1       -0.2864
      5 C           4.4413    3.0409   16.8891 C.ar    1  UNL1        0.1959
      6 C           5.4050    2.3349   17.6374 C.ar    1  UNL1        0.0554
      7 C           5.7428    2.6531   18.9413 C.ar    1  UNL1       -0.0417
      8 H           6.5089    2.0804   19.4416 H       1  UNL1        0.0632
      9 C           5.0934    3.6931   19.5739 C.ar    1  UNL1       -0.0489
     10 C           4.0921    4.3667   18.8738 C.ar    1  UNL1       -0.0514
     11 H           3.5797    5.1575   19.3980 H       1  UNL1        0.0624
     12 C           3.7373    4.0751   17.5714 C.ar    1  UNL1        0.0060
     13 C           5.4299    4.0925   20.9800 C.3     1  UNL1       -0.0397
     14 H           6.2025    3.4471   21.3896 H       1  UNL1        0.0278
     15 H           4.5489    4.0299   21.6181 H       1  UNL1        0.0278
     16 H           5.7882    5.1211   21.0071 H       1  UNL1        0.0278
     17 C           2.6229    4.8224   16.8506 C.3     1  UNL1       -0.0090
     18 C           1.9193    5.8513   17.7416 C.3     1  UNL1       -0.0559
     19 H           1.1241    6.3293   17.1725 H       1  UNL1        0.0238
     20 H           2.6077    6.6267   18.0692 H       1  UNL1        0.0238
     21 H           1.4715    5.3782   18.6126 H       1  UNL1        0.0238
     22 C           3.2190    5.5630   15.6472 C.3     1  UNL1       -0.0559
     23 H           3.7443    4.8660   15.0005 H       1  UNL1        0.0238
     24 H           3.9301    6.3149   15.9827 H       1  UNL1        0.0238
     25 H           2.4316    6.0573   15.0800 H       1  UNL1        0.0238
     26 C           1.5686    3.8108   16.3774 C.3     1  UNL1       -0.0559
     27 H           0.7699    4.3213   15.8425 H       1  UNL1        0.0238
     28 H           1.1361    3.2942   17.2325 H       1  UNL1        0.0238
     29 H           2.0144    3.0737   15.7152 H       1  UNL1        0.0238
     30 C           4.8196   -0.2921   17.1032 C.3     1  UNL1        0.0238
     31 H           4.9472   -0.6809   18.1166 H       1  UNL1        0.0428
     32 H           3.8912    0.2747   17.0438 H       1  UNL1        0.0428
     33 C           4.9169   -1.3949   16.0956 C.ar    1  UNL1       -0.0333
     34 C           3.8608   -1.7608   15.2521 C.ar    1  UNL1       -0.0333
     35 C           4.0420   -2.8200   14.3655 C.ar    1  UNL1       -0.0575
     36 H           3.2300   -3.0969   13.7081 H       1  UNL1        0.0621
     37 C           5.2320   -3.5181   14.3144 C.ar    1  UNL1       -0.0615
     38 H           5.3443   -4.3412   13.6255 H       1  UNL1        0.0618
     39 C           6.2772   -3.1550   15.1466 C.ar    1  UNL1       -0.0615
     40 H           7.2158   -3.6862   15.1073 H       1  UNL1        0.0618
     41 C           6.1136   -2.1045   16.0277 C.ar    1  UNL1       -0.0575
     42 H           6.9230   -1.8141   16.6824 H       1  UNL1        0.0621
     43 C           2.5440   -1.0633   15.2488 C.3     1  UNL1        0.0238
     44 H           2.2157   -0.7462   16.2372 H       1  UNL1        0.0428
     45 H           1.7737   -1.6873   14.7963 H       1  UNL1        0.0428
     46 C           2.9585   -0.2048   12.6362 C.ar    1  UNL1        0.0554
     47 C           4.3168   -0.3600   12.2918 C.ar    1  UNL1        0.1959
     48 C           4.5959   -0.9182   11.0104 C.ar    1  UNL1        0.0060
     49 C           3.5322   -1.2466   10.1914 C.ar    1  UNL1       -0.0514
     50 H           3.7230   -1.6659    9.2163 H       1  UNL1        0.0624
     51 C           2.1950   -1.0669   10.5458 C.ar    1  UNL1       -0.0489
     52 C           1.9159   -0.5387   11.7901 C.ar    1  UNL1       -0.0417
     53 H           0.8983   -0.3806   12.1173 H       1  UNL1        0.0632
     54 C           1.1024   -1.4538    9.5929 C.3     1  UNL1       -0.0397
     55 H           1.0922   -2.5335    9.4434 H       1  UNL1        0.0278
     56 H           1.2560   -0.9865    8.6210 H       1  UNL1        0.0278
     57 H           0.1310   -1.1509    9.9755 H       1  UNL1        0.0278
     58 C           6.0401   -1.1538   10.5829 C.3     1  UNL1       -0.0090
     59 C           6.6882   -2.1350   11.5671 C.3     1  UNL1       -0.0559
     60 H           6.6250   -1.7506   12.5798 H       1  UNL1        0.0238
     61 H           7.7358   -2.2864   11.3147 H       1  UNL1        0.0238
     62 H           6.1783   -3.0955   11.5274 H       1  UNL1        0.0238
     63 C           6.8146    0.1710   10.5918 C.3     1  UNL1       -0.0559
     64 H           6.4257    0.8424    9.8277 H       1  UNL1        0.0238
     65 H           7.8654   -0.0175   10.3805 H       1  UNL1        0.0238
     66 H           6.7421    0.6572   11.5631 H       1  UNL1        0.0238
     67 C           6.1577   -1.7520    9.1762 C.3     1  UNL1       -0.0559
     68 H           5.6712   -2.7229    9.1168 H       1  UNL1        0.0238
     69 H           7.2105   -1.8910    8.9383 H       1  UNL1        0.0238
     70 H           5.7300   -1.0908    8.4257 H       1  UNL1        0.0238
@<TRIPOS>BOND
     1    70    67    1
     2    56    54    1
     3    69    67    1
     4    68    67    1
     5    67    58    1
     6    50    49    1
     7    55    54    1
     8    54    57    1
     9    54    51    1
    10    64    63    1
    11    49    51   ar
    12    49    48   ar
    13    65    63    1
    14    51    52   ar
    15    58    63    1
    16    58    48    1
    17    58    59    1
    18    63    66    1
    19    48    47   ar
    20    61    59    1
    21    62    59    1
    22    59    60    1
    23    52    53    1
    24    52    46   ar
    25    47    46   ar
    26    47     4    1
    27    46     2    1
    28    38    37    1
    29    36    35    1
    30     2    43    1
    31    37    35   ar
    32    37    39   ar
    33    35    34   ar
    34    45    43    1
    35    23    22    1
    36    25    22    1
    37    40    39    1
    38    39    41   ar
    39    43    34    1
    40    43    44    1
    41    34    33   ar
    42     3     5    1
    43    22    24    1
    44    22    17    1
    45    29    26    1
    46    27    26    1
    47    41    33   ar
    48    41    42    1
    49    33    30    1
    50    26    17    1
    51    26    28    1
    52     1    30    1
    53     1     6    1
    54    17    12    1
    55    17    18    1
    56     5    12   ar
    57     5     6   ar
    58    32    30    1
    59    30    31    1
    60    19    18    1
    61    12    10   ar
    62     6     7   ar
    63    18    20    1
    64    18    21    1
    65    10    11    1
    66    10     9   ar
    67     7     8    1
    68     7     9   ar
    69     9    13    1
    70    13    16    1
    71    13    14    1
    72    13    15    1
