@<TRIPOS>MOLECULE
4,5,6,7,8,9
 84 87 0 0 0
SMALL
GASTEIGER

@<TRIPOS>ATOM
      1 SI          9.4169   12.9221   17.8149 Si      1  UNL1        0.0000
      2 SI          4.7099   13.8163   15.7622 Si      1  UNL1        0.0000
      3 SI          5.3701    9.9365   19.1824 Si      1  UNL1        0.0000
      4 N           8.1926   13.9927   18.3413 N.pl3   1  UNL1        0.0000
      5 N           4.4967   13.8206   17.4582 N.pl3   1  UNL1        0.0000
      6 N           5.9799   11.3432   19.9381 N.pl3   1  UNL1        0.0000
      7 N           5.6648   12.2907   15.7108 N.3     1  UNL1        0.0000
      8 N           6.2296   10.1911   17.6206 N.3     1  UNL1        0.0000
      9 N           8.3492   11.9525   16.7374 N.3     1  UNL1        0.0000
     10 C           4.8430   11.0914   15.7684 C.3     1  UNL1        0.0000
     11 H           3.9741   11.3247   16.3867 H       1  UNL1        0.0000
     12 H           4.4795   10.8107   14.7667 H       1  UNL1        0.0000
     13 C           5.5504    9.8633   16.3791 C.3     1  UNL1        0.0000
     14 H           6.2691    9.4608   15.6599 H       1  UNL1        0.0000
     15 H           4.7900    9.0872   16.5266 H       1  UNL1        0.0000
     16 C           7.6196    9.7620   17.6492 C.3     1  UNL1        0.0000
     17 H           7.9910    9.9376   18.6606 H       1  UNL1        0.0000
     18 H           7.7067    8.6836   17.4395 H       1  UNL1        0.0000
     19 C           8.5383   10.5142   16.6637 C.3     1  UNL1        0.0000
     20 H           9.5714   10.2292   16.8959 H       1  UNL1        0.0000
     21 H           8.3423   10.1676   15.6453 H       1  UNL1        0.0000
     22 C           8.1167   12.5717   15.4415 C.3     1  UNL1        0.0000
     23 H           8.1194   13.6526   15.5947 H       1  UNL1        0.0000
     24 H           8.9260   12.3285   14.7342 H       1  UNL1        0.0000
     25 C           6.7765   12.1840   14.7820 C.3     1  UNL1        0.0000
     26 H           6.8407   11.1618   14.3987 H       1  UNL1        0.0000
     27 H           6.6395   12.8350   13.9102 H       1  UNL1        0.0000
     28 C          10.1026   11.7951   19.2056 C.3     1  UNL1        0.0000
     29 H          10.6198   10.9150   18.8376 H       1  UNL1        0.0000
     30 H           9.3011   11.4701   19.8653 H       1  UNL1        0.0000
     31 H          10.8077   12.3535   19.8126 H       1  UNL1        0.0000
     32 C          10.8937   13.5890   16.7877 C.3     1  UNL1        0.0000
     33 H          11.2165   12.8749   16.0357 H       1  UNL1        0.0000
     34 H          11.7492   13.8035   17.4191 H       1  UNL1        0.0000
     35 H          10.6295   14.5099   16.2778 H       1  UNL1        0.0000
     36 C           8.3409   15.1618   19.0460 C.ar    1  UNL1        0.0000
     37 C           7.1972   15.9103   19.3754 C.ar    1  UNL1        0.0000
     38 H           6.2199   15.5497   19.0475 H       1  UNL1        0.0000
     39 C           7.2929   17.0861   20.0906 C.ar    1  UNL1        0.0000
     40 H           6.3938   17.6349   20.3322 H       1  UNL1        0.0000
     41 C           8.5295   17.5620   20.4978 C.ar    1  UNL1        0.0000
     42 H           8.6045   18.4803   21.0601 H       1  UNL1        0.0000
     43 C           9.6686   16.8425   20.1735 C.ar    1  UNL1        0.0000
     44 H          10.6392   17.2036   20.4842 H       1  UNL1        0.0000
     45 C           9.5814   15.6639   19.4612 C.ar    1  UNL1        0.0000
     46 H          10.4714   15.1042   19.2182 H       1  UNL1        0.0000
     47 C           5.7938   15.2614   15.1207 C.3     1  UNL1        0.0000
     48 H           6.2058   15.0909   14.1315 H       1  UNL1        0.0000
     49 H           6.6167   15.4557   15.8050 H       1  UNL1        0.0000
     50 H           5.2000   16.1682   15.0709 H       1  UNL1        0.0000
     51 C           3.1892   13.6338   14.6069 C.3     1  UNL1        0.0000
     52 H           3.4267   13.0589   13.7165 H       1  UNL1        0.0000
     53 H           2.8230   14.6010   14.2800 H       1  UNL1        0.0000
     54 H           2.3712   13.1336   15.1155 H       1  UNL1        0.0000
     55 C           3.6576   14.6141   18.2009 C.ar    1  UNL1        0.0000
     56 C           2.8176   15.5875   17.6439 C.ar    1  UNL1        0.0000
     57 H           2.8288   15.7268   16.5739 H       1  UNL1        0.0000
     58 C           1.9988   16.3603   18.4416 C.ar    1  UNL1        0.0000
     59 H           1.3642   17.1066   17.9842 H       1  UNL1        0.0000
     60 C           1.9859   16.1943   19.8173 C.ar    1  UNL1        0.0000
     61 H           1.3472   16.8062   20.4359 H       1  UNL1        0.0000
     62 C           2.8044   15.2319   20.3878 C.ar    1  UNL1        0.0000
     63 H           2.8062   15.0867   21.4588 H       1  UNL1        0.0000
     64 C           3.6235   14.4528   19.5972 C.ar    1  UNL1        0.0000
     65 H           4.2557   13.6883   20.0541 H       1  UNL1        0.0000
     66 C           5.8309    8.2042   19.8661 C.3     1  UNL1        0.0000
     67 H           5.9452    7.4744   19.0697 H       1  UNL1        0.0000
     68 H           5.0689    7.8299   20.5414 H       1  UNL1        0.0000
     69 H           6.7640    8.2391   20.4193 H       1  UNL1        0.0000
     70 C           3.4782    9.9856   18.8776 C.3     1  UNL1        0.0000
     71 H           3.1380    9.2718   18.1346 H       1  UNL1        0.0000
     72 H           3.1662   10.9796   18.5651 H       1  UNL1        0.0000
     73 H           2.9545    9.7637   19.8017 H       1  UNL1        0.0000
     74 C           5.9036   11.6881   21.2649 C.ar    1  UNL1        0.0000
     75 C           6.4858   12.8947   21.6915 C.ar    1  UNL1        0.0000
     76 H           6.9977   13.5204   20.9574 H       1  UNL1        0.0000
     77 C           6.4281   13.2894   23.0121 C.ar    1  UNL1        0.0000
     78 H           6.8815   14.2252   23.3065 H       1  UNL1        0.0000
     79 C           5.7950   12.4955   23.9557 C.ar    1  UNL1        0.0000
     80 H           5.7473   12.8054   24.9886 H       1  UNL1        0.0000
     81 C           5.2236   11.2983   23.5550 C.ar    1  UNL1        0.0000
     82 H           4.7278   10.6694   24.2814 H       1  UNL1        0.0000
     83 C           5.2741   10.8976   22.2356 C.ar    1  UNL1        0.0000
     84 H           4.8209    9.9678   21.9282 H       1  UNL1        0.0000
@<TRIPOS>BOND
     1    52    51    1
     2    27    25    1
     3    48    47    1
     4    53    51    1
     5    26    25    1
     6    51    54    1
     7    51     2    1
     8    24    22    1
     9    12    10    1
    10    25    22    1
    11    25     7    1
    12    50    47    1
    13    47     2    1
    14    47    49    1
    15    22    23    1
    16    22     9    1
    17    21    19    1
    18    14    13    1
    19     7     2    1
    20     7    10    1
    21     2     5    1
    22    10    13    1
    23    10    11    1
    24    33    32    1
    25    35    32    1
    26    13    15    1
    27    13     8    1
    28    57    56    1
    29    19     9    1
    30    19    20    1
    31    19    16    1
    32     9     1    1
    33    32    34    1
    34    32     1    1
    35    18    16    1
    36     5    55    1
    37     8    16    1
    38     8     3    1
    39    56    55   ar
    40    56    58   ar
    41    16    17    1
    42     1     4    1
    43     1    28    1
    44    59    58    1
    45    71    70    1
    46    55    64   ar
    47     4    36    1
    48    58    60   ar
    49    72    70    1
    50    29    28    1
    51    70     3    1
    52    70    73    1
    53    36    37   ar
    54    36    45   ar
    55    38    37    1
    56    67    66    1
    57     3    66    1
    58     3     6    1
    59    28    31    1
    60    28    30    1
    61    46    45    1
    62    37    39   ar
    63    45    43   ar
    64    64    65    1
    65    64    62   ar
    66    60    62   ar
    67    60    61    1
    68    66    69    1
    69    66    68    1
    70     6    74    1
    71    39    40    1
    72    39    41   ar
    73    43    44    1
    74    43    41   ar
    75    62    63    1
    76    41    42    1
    77    76    75    1
    78    74    75   ar
    79    74    83   ar
    80    75    77   ar
    81    84    83    1
    82    83    81   ar
    83    77    78    1
    84    77    79   ar
    85    81    79   ar
    86    81    82    1
    87    79    80    1
