@<TRIPOS>MOLECULE
4,5,6,7,8,9
 84 87 0 0 0
SMALL
GASTEIGER

@<TRIPOS>ATOM
      1 SI          8.0565   10.2397   13.7846 Si      1  UNL1        0.0000
      2 SI          5.5361    5.8061   14.9901 Si      1  UNL1        0.0000
      3 SI          7.3406    6.3600   10.1421 Si      1  UNL1        0.0000
      4 N           8.6120    8.8918   14.6556 N.pl3   1  UNL1        0.0000
      5 N           7.0131    5.2366   14.3569 N.pl3   1  UNL1        0.0000
      6 N           8.7764    6.7001   10.9812 N.pl3   1  UNL1        0.0000
      7 N           5.1644    6.9736   13.6758 N.3     1  UNL1        0.0000
      8 N           6.2676    7.4806   11.0534 N.3     1  UNL1        0.0000
      9 N           6.5538    9.4774   13.1514 N.3     1  UNL1        0.0000
     10 C           4.6062    6.3403   12.4916 C.3     1  UNL1        0.0000
     11 H           3.5178    6.1983   12.5924 H       1  UNL1        0.0000
     12 H           5.0649    5.3549   12.4040 H       1  UNL1        0.0000
     13 C           4.8678    7.1148   11.1858 C.3     1  UNL1        0.0000
     14 H           4.5296    6.4866   10.3530 H       1  UNL1        0.0000
     15 H           4.2463    8.0138   11.1639 H       1  UNL1        0.0000
     16 C           6.4586    8.8845   10.7268 C.3     1  UNL1        0.0000
     17 H           5.8991    9.1581    9.8170 H       1  UNL1        0.0000
     18 H           7.5210    9.0264   10.5194 H       1  UNL1        0.0000
     19 C           6.0419    9.8666   11.8473 C.3     1  UNL1        0.0000
     20 H           6.4028   10.8602   11.5543 H       1  UNL1        0.0000
     21 H           4.9505    9.9324   11.8862 H       1  UNL1        0.0000
     22 C           5.5267    9.3847   14.1795 C.3     1  UNL1        0.0000
     23 H           4.9560   10.3244   14.2529 H       1  UNL1        0.0000
     24 H           6.0408    9.2344   15.1303 H       1  UNL1        0.0000
     25 C           4.5169    8.2326   13.9998 C.3     1  UNL1        0.0000
     26 H           3.9418    8.1629   14.9307 H       1  UNL1        0.0000
     27 H           3.8035    8.4938   13.2131 H       1  UNL1        0.0000
     28 C           7.5848   11.8860   14.6490 C.3     1  UNL1        0.0000
     29 H           6.8003   12.4114   14.1114 H       1  UNL1        0.0000
     30 H           8.4339   12.5577   14.7213 H       1  UNL1        0.0000
     31 H           7.2279   11.7023   15.6572 H       1  UNL1        0.0000
     32 C           9.1739   10.6577   12.2859 C.3     1  UNL1        0.0000
     33 H           8.7111   11.3528   11.5936 H       1  UNL1        0.0000
     34 H           9.4270    9.7534   11.7371 H       1  UNL1        0.0000
     35 H          10.1019   11.1083   12.6230 H       1  UNL1        0.0000
     36 C           9.2716    8.7838   15.8440 C.ar    1  UNL1        0.0000
     37 C           9.3663    7.5206   16.4602 C.ar    1  UNL1        0.0000
     38 H           8.9053    6.6626   15.9670 H       1  UNL1        0.0000
     39 C          10.0138    7.3616   17.6674 C.ar    1  UNL1        0.0000
     40 H          10.0605    6.3815   18.1228 H       1  UNL1        0.0000
     41 C          10.6004    8.4460   18.3035 C.ar    1  UNL1        0.0000
     42 H          11.1096    8.3189   19.2468 H       1  UNL1        0.0000
     43 C          10.5216    9.6962   17.7097 C.ar    1  UNL1        0.0000
     44 H          10.9764   10.5498   18.1934 H       1  UNL1        0.0000
     45 C           9.8709    9.8673   16.5051 C.ar    1  UNL1        0.0000
     46 H           9.8161   10.8419   16.0445 H       1  UNL1        0.0000
     47 C           5.6770    6.7558   16.6461 C.3     1  UNL1        0.0000
     48 H           4.7499    7.2404   16.9341 H       1  UNL1        0.0000
     49 H           6.4549    7.5118   16.6041 H       1  UNL1        0.0000
     50 H           5.9429    6.0685   17.4424 H       1  UNL1        0.0000
     51 C           4.0626    4.5859   15.1532 C.3     1  UNL1        0.0000
     52 H           3.1108    5.0735   14.9627 H       1  UNL1        0.0000
     53 H           4.0115    4.1532   16.1467 H       1  UNL1        0.0000
     54 H           4.1614    3.7668   14.4483 H       1  UNL1        0.0000
     55 C           7.6148    4.0252   14.5395 C.ar    1  UNL1        0.0000
     56 C           8.6700    3.6571   13.6828 C.ar    1  UNL1        0.0000
     57 H           8.9622    4.3521   12.8917 H       1  UNL1        0.0000
     58 C           9.3078    2.4398   13.8103 C.ar    1  UNL1        0.0000
     59 H          10.1118    2.1868   13.1328 H       1  UNL1        0.0000
     60 C           8.9225    1.5444   14.7959 C.ar    1  UNL1        0.0000
     61 H           9.4213    0.5926   14.8966 H       1  UNL1        0.0000
     62 C           7.8851    1.8888   15.6492 C.ar    1  UNL1        0.0000
     63 H           7.5757    1.1987   16.4219 H       1  UNL1        0.0000
     64 C           7.2405    3.1019   15.5281 C.ar    1  UNL1        0.0000
     65 H           6.4370    3.3667   16.1977 H       1  UNL1        0.0000
     66 C           7.3485    6.8239    8.2800 C.3     1  UNL1        0.0000
     67 H           6.3606    6.7635    7.8330 H       1  UNL1        0.0000
     68 H           7.9999    6.1539    7.7294 H       1  UNL1        0.0000
     69 H           7.7221    7.8312    8.1278 H       1  UNL1        0.0000
     70 C           6.6063    4.5873   10.2409 C.3     1  UNL1        0.0000
     71 H           5.5611    4.5315    9.9543 H       1  UNL1        0.0000
     72 H           6.7022    4.1749   11.2423 H       1  UNL1        0.0000
     73 H           7.1530    3.9333    9.5686 H       1  UNL1        0.0000
     74 C          10.0219    6.2045   10.6435 C.ar    1  UNL1        0.0000
     75 C          10.2569    4.8530   10.3562 C.ar    1  UNL1        0.0000
     76 H           9.4223    4.1681   10.3746 H       1  UNL1        0.0000
     77 C          11.5256    4.3965   10.0620 C.ar    1  UNL1        0.0000
     78 H          11.6799    3.3464    9.8546 H       1  UNL1        0.0000
     79 C          12.6006    5.2704   10.0243 C.ar    1  UNL1        0.0000
     80 H          13.5918    4.9098    9.7924 H       1  UNL1        0.0000
     81 C          12.3829    6.6164   10.2720 C.ar    1  UNL1        0.0000
     82 H          13.2093    7.3132   10.2200 H       1  UNL1        0.0000
     83 C          11.1173    7.0774   10.5743 C.ar    1  UNL1        0.0000
     84 H          10.9458    8.1315   10.7493 H       1  UNL1        0.0000
@<TRIPOS>BOND
     1    68    66    1
     2    67    66    1
     3    69    66    1
     4    66     3    1
     5    73    70    1
     6    80    79    1
     7    17    16    1
     8    78    77    1
     9    71    70    1
    10    79    77   ar
    11    79    81   ar
    12    77    75   ar
    13     3    70    1
    14     3     6    1
    15     3     8    1
    16    82    81    1
    17    70    72    1
    18    81    83   ar
    19    14    13    1
    20    75    76    1
    21    75    74   ar
    22    18    16    1
    23    83    74   ar
    24    83    84    1
    25    74     6    1
    26    16     8    1
    27    16    19    1
    28     8    13    1
    29    15    13    1
    30    13    10    1
    31    20    19    1
    32    33    32    1
    33    34    32    1
    34    19    21    1
    35    19     9    1
    36    32    35    1
    37    32     1    1
    38    12    10    1
    39    10    11    1
    40    10     7    1
    41    57    56    1
    42    59    58    1
    43     9     1    1
    44     9    22    1
    45    27    25    1
    46     7    25    1
    47     7     2    1
    48    56    58   ar
    49    56    55   ar
    50     1    28    1
    51     1     4    1
    52    58    60   ar
    53    25    22    1
    54    25    26    1
    55    29    28    1
    56    22    23    1
    57    22    24    1
    58     5    55    1
    59     5     2    1
    60    54    51    1
    61    55    64   ar
    62    28    30    1
    63    28    31    1
    64     4    36    1
    65    60    61    1
    66    60    62   ar
    67    52    51    1
    68     2    51    1
    69     2    47    1
    70    51    53    1
    71    64    62   ar
    72    64    65    1
    73    62    63    1
    74    36    37   ar
    75    36    45   ar
    76    38    37    1
    77    46    45    1
    78    37    39   ar
    79    45    43   ar
    80    49    47    1
    81    47    48    1
    82    47    50    1
    83    39    40    1
    84    39    41   ar
    85    43    44    1
    86    43    41   ar
    87    41    42    1
