@<TRIPOS>MOLECULE
4,5,6,7,8,9
 84 87 0 0 0
SMALL
GASTEIGER

@<TRIPOS>ATOM
      1 SI          3.2687    4.6227   10.6460 Si      1  UNL1        0.0000
      2 SI         -1.2429    4.6343   12.3452 Si      1  UNL1        0.0000
      3 SI         -0.4162    3.1098    7.7900 Si      1  UNL1        0.0000
      4 N          -0.8006    4.5295    8.6987 N.pl3   1  UNL1        0.0000
      5 N           2.1476    5.1855    9.4574 N.pl3   1  UNL1        0.0000
      6 N          -0.0549    5.5803   11.5269 N.pl3   1  UNL1        0.0000
      7 N           0.3869    2.3506    9.2208 N.3     1  UNL1        0.0000
      8 N          -0.5182    3.1061   11.7100 N.3     1  UNL1        0.0000
      9 N           2.1713    3.2647   11.1219 N.3     1  UNL1        0.0000
     10 C          -1.3259    2.1622   10.9624 C.3     1  UNL1        0.0000
     11 H          -2.0878    2.7224   10.4141 H       1  UNL1        0.0000
     12 H          -1.8336    1.4411   11.6214 H       1  UNL1        0.0000
     13 C          -0.4539    1.4031    9.9475 C.3     1  UNL1        0.0000
     14 H           0.1670    0.6666   10.4635 H       1  UNL1        0.0000
     15 H          -1.1063    0.8392    9.2735 H       1  UNL1        0.0000
     16 C           1.7688    1.9211    9.1115 C.3     1  UNL1        0.0000
     17 H           1.8494    0.9002    8.7071 H       1  UNL1        0.0000
     18 H           2.2882    2.6027    8.4324 H       1  UNL1        0.0000
     19 C           2.4665    1.9860   10.4805 C.3     1  UNL1        0.0000
     20 H           3.5418    1.8438   10.3332 H       1  UNL1        0.0000
     21 H           2.1299    1.1607   11.1129 H       1  UNL1        0.0000
     22 C           1.7938    3.1223   12.5157 C.3     1  UNL1        0.0000
     23 H           2.5319    2.5325   13.0807 H       1  UNL1        0.0000
     24 H           1.7392    4.1193   12.9591 H       1  UNL1        0.0000
     25 C           0.4105    2.4611   12.6337 C.3     1  UNL1        0.0000
     26 H           0.0694    2.5364   13.6714 H       1  UNL1        0.0000
     27 H           0.4841    1.3940   12.4112 H       1  UNL1        0.0000
     28 C          -1.3363    4.6018   14.2571 C.3     1  UNL1        0.0000
     29 H          -1.8964    3.7386   14.6061 H       1  UNL1        0.0000
     30 H          -1.8630    5.4804   14.6153 H       1  UNL1        0.0000
     31 H          -0.3649    4.5861   14.7425 H       1  UNL1        0.0000
     32 C          -3.0476    4.7879   11.7247 C.3     1  UNL1        0.0000
     33 H          -3.6799    4.0096   12.1424 H       1  UNL1        0.0000
     34 H          -3.1260    4.7459   10.6407 H       1  UNL1        0.0000
     35 H          -3.4686    5.7386   12.0365 H       1  UNL1        0.0000
     36 C          -1.8941    2.0549    7.1830 C.3     1  UNL1        0.0000
     37 H          -1.6089    1.0230    6.9997 H       1  UNL1        0.0000
     38 H          -2.2731    2.4429    6.2439 H       1  UNL1        0.0000
     39 H          -2.7255    2.0578    7.8822 H       1  UNL1        0.0000
     40 C           0.8532    3.2176    6.3565 C.3     1  UNL1        0.0000
     41 H           1.2199    2.2357    6.0698 H       1  UNL1        0.0000
     42 H           1.7097    3.8425    6.6017 H       1  UNL1        0.0000
     43 H           0.3920    3.6502    5.4741 H       1  UNL1        0.0000
     44 C           3.6439    5.7151   12.1731 C.3     1  UNL1        0.0000
     45 H           4.0549    5.1397   12.9979 H       1  UNL1        0.0000
     46 H           2.7616    6.2432   12.5273 H       1  UNL1        0.0000
     47 H           4.3793    6.4721   11.9200 H       1  UNL1        0.0000
     48 C           4.9326    3.9418    9.9829 C.3     1  UNL1        0.0000
     49 H           5.3945    3.2440   10.6754 H       1  UNL1        0.0000
     50 H           5.6381    4.7534    9.8431 H       1  UNL1        0.0000
     51 H           4.8298    3.4473    9.0210 H       1  UNL1        0.0000
     52 C           0.3440    6.8880   11.7625 C.ar    1  UNL1        0.0000
     53 C           0.4252    7.4121   13.0575 C.ar    1  UNL1        0.0000
     54 H           0.1336    6.7967   13.8941 H       1  UNL1        0.0000
     55 C           0.8825    8.6988   13.2718 C.ar    1  UNL1        0.0000
     56 H           0.9405    9.0792   14.2805 H       1  UNL1        0.0000
     57 C           1.2681    9.4960   12.2069 C.ar    1  UNL1        0.0000
     58 H           1.6288   10.4973   12.3803 H       1  UNL1        0.0000
     59 C           1.1725    8.9976   10.9175 C.ar    1  UNL1        0.0000
     60 H           1.4525    9.6123   10.0754 H       1  UNL1        0.0000
     61 C           0.7092    7.7154   10.6929 C.ar    1  UNL1        0.0000
     62 H           0.6035    7.3463    9.6794 H       1  UNL1        0.0000
     63 C          -1.5948    5.5706    8.2360 C.ar    1  UNL1        0.0000
     64 C          -1.9717    6.6210    9.0828 C.ar    1  UNL1        0.0000
     65 H          -1.6414    6.6192   10.1117 H       1  UNL1        0.0000
     66 C          -2.7646    7.6553    8.6223 C.ar    1  UNL1        0.0000
     67 H          -3.0361    8.4522    9.2982 H       1  UNL1        0.0000
     68 C          -3.2086    7.6776    7.3109 C.ar    1  UNL1        0.0000
     69 H          -3.8260    8.4867    6.9551 H       1  UNL1        0.0000
     70 C          -2.8465    6.6459    6.4614 C.ar    1  UNL1        0.0000
     71 H          -3.1816    6.6467    5.4352 H       1  UNL1        0.0000
     72 C          -2.0531    5.6103    6.9137 C.ar    1  UNL1        0.0000
     73 H          -1.7689    4.8193    6.2368 H       1  UNL1        0.0000
     74 C           2.4362    6.1869    8.5420 C.ar    1  UNL1        0.0000
     75 C           3.6054    6.9499    8.6326 C.ar    1  UNL1        0.0000
     76 H           4.2857    6.7691    9.4495 H       1  UNL1        0.0000
     77 C           3.8897    7.9376    7.7106 C.ar    1  UNL1        0.0000
     78 H           4.7998    8.5094    7.8116 H       1  UNL1        0.0000
     79 C           3.0176    8.2010    6.6677 C.ar    1  UNL1        0.0000
     80 H           3.2408    8.9745    5.9504 H       1  UNL1        0.0000
     81 C           1.8516    7.4614    6.5649 C.ar    1  UNL1        0.0000
     82 H           1.1540    7.6575    5.7644 H       1  UNL1        0.0000
     83 C           1.5626    6.4697    7.4830 C.ar    1  UNL1        0.0000
     84 H           0.6414    5.9135    7.3897 H       1  UNL1        0.0000
@<TRIPOS>BOND
     1    71    70    1
     2    43    40    1
     3    82    81    1
     4    80    79    1
     5    41    40    1
     6    73    72    1
     7    38    36    1
     8    40    42    1
     9    40     3    1
    10    70    72   ar
    11    70    68   ar
    12    81    79   ar
    13    81    83   ar
    14    79    77   ar
    15    72    63   ar
    16    69    68    1
    17    37    36    1
    18    36     3    1
    19    36    39    1
    20    68    66   ar
    21    84    83    1
    22    83    74   ar
    23    77    78    1
    24    77    75   ar
    25     3     4    1
    26     3     7    1
    27    63     4    1
    28    63    64   ar
    29    18    16    1
    30    74    75   ar
    31    74     5    1
    32    66    64   ar
    33    66    67    1
    34    75    76    1
    35    17    16    1
    36    51    48    1
    37    64    65    1
    38    16     7    1
    39    16    19    1
    40     7    13    1
    41    15    13    1
    42     5     1    1
    43    62    61    1
    44    50    48    1
    45    13    14    1
    46    13    10    1
    47    48     1    1
    48    48    49    1
    49    60    59    1
    50    20    19    1
    51    11    10    1
    52    19    21    1
    53    19     9    1
    54    34    32    1
    55     1     9    1
    56     1    44    1
    57    61    59   ar
    58    61    52   ar
    59    59    57   ar
    60    10    12    1
    61    10     8    1
    62     9    22    1
    63     6    52    1
    64     6     2    1
    65     8     2    1
    66     8    25    1
    67    32    35    1
    68    32    33    1
    69    32     2    1
    70    52    53   ar
    71    47    44    1
    72    44    46    1
    73    44    45    1
    74    57    58    1
    75    57    55   ar
    76     2    28    1
    77    27    25    1
    78    22    25    1
    79    22    24    1
    80    22    23    1
    81    25    26    1
    82    53    55   ar
    83    53    54    1
    84    55    56    1
    85    28    29    1
    86    28    30    1
    87    28    31    1
