@<TRIPOS>MOLECULE
4,5,6,7,8,14
 84 87 0 0 0
SMALL
GASTEIGER

@<TRIPOS>ATOM
      1 SI         13.1548    1.6505   12.1267 Si      1  UNL1        0.0000
      2 SI         17.8361    1.1610   10.6825 Si      1  UNL1        0.0000
      3 SI         15.8052    5.5997   10.9591 Si      1  UNL1        0.0000
      4 N          13.7502    2.2654   10.5306 N.3     1  UNL1        0.0000
      5 N          15.5509    4.2431    9.7892 N.3     1  UNL1        0.0000
      6 N          16.3328    1.5867    9.7681 N.3     1  UNL1        0.0000
      7 N          14.7298    1.7189   12.7985 N.pl3   1  UNL1        0.0000
      8 N          15.5183    4.5714   12.3006 N.pl3   1  UNL1        0.0000
      9 C          16.6418    3.8587    8.9127 C.3     1  UNL1        0.0000
     10 H          17.5793    4.0303    9.4489 H       1  UNL1        0.0000
     11 H          16.6562    4.4566    7.9880 H       1  UNL1        0.0000
     12 C          15.6362    0.2402   16.6119 C.ar    1  UNL1        0.0000
     13 H          15.8815   -0.1409   17.5908 H       1  UNL1        0.0000
     14 N          17.5208    2.3558   11.8706 N.pl3   1  UNL1        0.0000
     15 C          16.3365    5.4539   15.7920 C.ar    1  UNL1        0.0000
     16 H          17.1798    5.4066   16.4641 H       1  UNL1        0.0000
     17 C          14.9496    2.0574   15.1976 C.ar    1  UNL1        0.0000
     18 H          14.6371    3.0833   15.0705 H       1  UNL1        0.0000
     19 C          19.5249    3.5164   12.5849 C.ar    1  UNL1        0.0000
     20 H          19.6543    3.8793   11.5739 H       1  UNL1        0.0000
     21 C          18.4378    2.6877   12.8716 C.ar    1  UNL1        0.0000
     22 C          15.0286    1.2324   14.0745 C.ar    1  UNL1        0.0000
     23 C          15.3622   -0.1118   14.2540 C.ar    1  UNL1        0.0000
     24 H          15.3644   -0.7689   13.3942 H       1  UNL1        0.0000
     25 C          13.9063    1.2455    9.4981 C.3     1  UNL1        0.0000
     26 H          13.7966    1.6910    8.5060 H       1  UNL1        0.0000
     27 H          13.1376    0.4691    9.5752 H       1  UNL1        0.0000
     28 C          15.2908    0.5857    9.6303 C.3     1  UNL1        0.0000
     29 H          15.2933   -0.0283   10.5356 H       1  UNL1        0.0000
     30 H          15.4649   -0.0716    8.7638 H       1  UNL1        0.0000
     31 C          15.3960    5.0418   13.6102 C.ar    1  UNL1        0.0000
     32 C          17.5649    6.3332   10.8011 C.3     1  UNL1        0.0000
     33 H          17.8182    6.6136    9.7831 H       1  UNL1        0.0000
     34 H          18.3194    5.6421   11.1671 H       1  UNL1        0.0000
     35 H          17.6385    7.2301   11.4078 H       1  UNL1        0.0000
     36 C          13.2215    3.5206   10.0283 C.3     1  UNL1        0.0000
     37 H          13.0123    4.1638   10.8877 H       1  UNL1        0.0000
     38 H          12.2853    3.3757    9.4666 H       1  UNL1        0.0000
     39 C          14.1964    5.6085   14.0467 C.ar    1  UNL1        0.0000
     40 H          13.3748    5.6980   13.3483 H       1  UNL1        0.0000
     41 C          17.8099   -0.6677   11.2446 C.3     1  UNL1        0.0000
     42 H          17.0740   -0.8395   12.0246 H       1  UNL1        0.0000
     43 H          18.7768   -0.9326   11.6602 H       1  UNL1        0.0000
     44 H          17.6117   -1.3564   10.4285 H       1  UNL1        0.0000
     45 C          14.2484    4.2332    9.1306 C.3     1  UNL1        0.0000
     46 H          13.8909    5.2475    8.9228 H       1  UNL1        0.0000
     47 H          14.3168    3.7265    8.1647 H       1  UNL1        0.0000
     48 C          16.4759    5.0002   14.4935 C.ar    1  UNL1        0.0000
     49 H          17.4211    4.6122   14.1431 H       1  UNL1        0.0000
     50 C          19.4199    1.3979    9.6342 C.3     1  UNL1        0.0000
     51 H          19.4758    0.6889    8.8137 H       1  UNL1        0.0000
     52 H          20.2859    1.2216   10.2642 H       1  UNL1        0.0000
     53 H          19.5249    2.3970    9.2219 H       1  UNL1        0.0000
     54 C          15.1289    5.9752   16.2279 C.ar    1  UNL1        0.0000
     55 H          15.0218    6.3267   17.2420 H       1  UNL1        0.0000
     56 C          16.5556    2.3648    8.5537 C.3     1  UNL1        0.0000
     57 H          15.7442    2.1968    7.8411 H       1  UNL1        0.0000
     58 H          17.4795    2.0692    8.0453 H       1  UNL1        0.0000
     59 C          14.0637    6.0618   15.3463 C.ar    1  UNL1        0.0000
     60 H          13.1270    6.4898   15.6707 H       1  UNL1        0.0000
     61 C          20.4306    3.8575   13.5724 C.ar    1  UNL1        0.0000
     62 H          21.2607    4.5062   13.3361 H       1  UNL1        0.0000
     63 C          15.6709   -0.5994   15.5105 C.ar    1  UNL1        0.0000
     64 H          15.9343   -1.6394   15.6316 H       1  UNL1        0.0000
     65 C          12.3826   -0.0957   11.9978 C.3     1  UNL1        0.0000
     66 H          11.4699   -0.0991   11.4097 H       1  UNL1        0.0000
     67 H          12.1190   -0.4363   12.9939 H       1  UNL1        0.0000
     68 H          13.0565   -0.8366   11.5778 H       1  UNL1        0.0000
     69 C          14.5620    7.0308   10.6972 C.3     1  UNL1        0.0000
     70 H          14.7138    7.5343    9.7472 H       1  UNL1        0.0000
     71 H          14.7102    7.7718   11.4760 H       1  UNL1        0.0000
     72 H          13.5232    6.7187   10.7494 H       1  UNL1        0.0000
     73 C          11.8243    2.8104   12.8648 C.3     1  UNL1        0.0000
     74 H          11.0146    3.0204   12.1724 H       1  UNL1        0.0000
     75 H          12.2515    3.7543   13.1914 H       1  UNL1        0.0000
     76 H          11.3840    2.3440   13.7403 H       1  UNL1        0.0000
     77 C          18.3178    2.1653   14.1608 C.ar    1  UNL1        0.0000
     78 H          17.5042    1.4885   14.3759 H       1  UNL1        0.0000
     79 C          15.2636    1.5650   16.4508 C.ar    1  UNL1        0.0000
     80 H          15.2074    2.2194   17.3074 H       1  UNL1        0.0000
     81 C          20.2802    3.3644   14.8582 C.ar    1  UNL1        0.0000
     82 H          20.9870    3.6333   15.6272 H       1  UNL1        0.0000
     83 C          19.2273    2.5099   15.1437 C.ar    1  UNL1        0.0000
     84 H          19.1151    2.1019   16.1367 H       1  UNL1        0.0000
@<TRIPOS>BOND
     1    57    56    1
     2    11     9    1
     3    58    56    1
     4    47    45    1
     5    26    25    1
     6    56     9    1
     7    56     6    1
     8    30    28    1
     9    51    50    1
    10     9    10    1
    11     9     5    1
    12    46    45    1
    13    45     5    1
    14    45    36    1
    15    53    50    1
    16    38    36    1
    17    25    27    1
    18    25    28    1
    19    25     4    1
    20    28     6    1
    21    28    29    1
    22    50    52    1
    23    50     2    1
    24    70    69    1
    25     6     2    1
    26    33    32    1
    27     5     3    1
    28    36     4    1
    29    36    37    1
    30    44    41    1
    31     4     1    1
    32     2    41    1
    33     2    14    1
    34    69    72    1
    35    69     3    1
    36    69    71    1
    37    32     3    1
    38    32    34    1
    39    32    35    1
    40     3     8    1
    41    41    43    1
    42    41    42    1
    43    66    65    1
    44    20    19    1
    45    68    65    1
    46    14    21    1
    47    65     1    1
    48    65    67    1
    49     1     7    1
    50     1    73    1
    51    74    73    1
    52     8    31    1
    53    19    21   ar
    54    19    61   ar
    55     7    22    1
    56    73    75    1
    57    73    76    1
    58    21    77   ar
    59    62    61    1
    60    40    39    1
    61    24    23    1
    62    61    81   ar
    63    31    39   ar
    64    31    48   ar
    65    39    59   ar
    66    22    23   ar
    67    22    17   ar
    68    49    48    1
    69    77    78    1
    70    77    83   ar
    71    23    63   ar
    72    48    15   ar
    73    81    83   ar
    74    81    82    1
    75    18    17    1
    76    83    84    1
    77    17    79   ar
    78    59    60    1
    79    59    54   ar
    80    63    64    1
    81    63    12   ar
    82    15    54   ar
    83    15    16    1
    84    54    55    1
    85    79    12   ar
    86    79    80    1
    87    12    13    1
