@<TRIPOS>MOLECULE
4,11,18,40,59
 84 87 0 0 0
SMALL
GASTEIGER

@<TRIPOS>ATOM
      1 SI          1.4878   -0.0680   14.0375 Si      1  UNL1        0.0000
      2 SI          5.7390    2.2611   14.4488 Si      1  UNL1        0.0000
      3 SI          1.5726    4.6211   15.3372 Si      1  UNL1        0.0000
      4 N           4.5689    2.0397   15.8167 N.3     1  UNL1        0.0000
      5 C           4.7971    4.0332   12.5534 C.ar    1  UNL1        0.0000
      6 F           0.7066    6.2616   13.4187 F       1  UNL1        0.0000
      7 C           4.5561    0.7667   16.5202 C.3     1  UNL1        0.0000
      8 H           5.5426    0.2887   16.5134 H       1  UNL1        0.0000
      9 H           4.2866    0.9159   17.5700 H       1  UNL1        0.0000
     10 F           6.9091    3.0223   12.1751 F       1  UNL1        0.0000
     11 N           2.1323    3.1666   16.2650 N.3     1  UNL1        0.0000
     12 C           5.9956    3.9760   11.8285 C.ar    1  UNL1        0.0000
     13 C           1.0394    2.2904   16.6628 C.3     1  UNL1        0.0000
     14 H           0.6288    2.5831   17.6394 H       1  UNL1        0.0000
     15 H           0.2425    2.3817   15.9215 H       1  UNL1        0.0000
     16 C           0.5228    3.0543   11.7577 C.ar    1  UNL1        0.0000
     17 H           0.8081    2.0274   11.9103 H       1  UNL1        0.0000
     18 N           1.5101    3.6386   13.9051 N.pl3   1  UNL1        0.0000
     19 C          -0.1576    3.4120   10.6100 C.ar    1  UNL1        0.0000
     20 H          -0.3794    2.6552    9.8738 H       1  UNL1        0.0000
     21 C          -0.2704    5.6738   11.3608 C.ar    1  UNL1        0.0000
     22 H          -0.5625    6.7050   11.2424 H       1  UNL1        0.0000
     23 C           4.1736    5.8623   11.0764 C.ar    1  UNL1        0.0000
     24 H           3.4459    6.6063   10.7919 H       1  UNL1        0.0000
     25 C          -0.3500    0.4679   14.0816 C.3     1  UNL1        0.0000
     26 H          -0.8477    0.1470   14.9916 H       1  UNL1        0.0000
     27 H          -0.8849    0.0124   13.2549 H       1  UNL1        0.0000
     28 H          -0.4682    1.5458   13.9849 H       1  UNL1        0.0000
     29 C           6.2922    4.8080   10.7728 C.ar    1  UNL1        0.0000
     30 H           7.2372    4.6938   10.2663 H       1  UNL1        0.0000
     31 N           2.3097    0.5541   15.5295 N.3     1  UNL1        0.0000
     32 C           3.5378   -0.1623   15.8438 C.3     1  UNL1        0.0000
     33 H           3.3392   -1.0314   16.4866 H       1  UNL1        0.0000
     34 H           3.9688   -0.5266   14.9087 H       1  UNL1        0.0000
     35 C          -0.5601    4.7203   10.4000 C.ar    1  UNL1        0.0000
     36 H          -1.0917    4.9977    9.5050 H       1  UNL1        0.0000
     37 C           4.5221    3.1832   16.7170 C.3     1  UNL1        0.0000
     38 H           4.7617    4.0800   16.1412 H       1  UNL1        0.0000
     39 H           5.2649    3.0883   17.5215 H       1  UNL1        0.0000
     40 N           4.5336    3.1981   13.6188 N.pl3   1  UNL1        0.0000
     41 C           6.1803    0.5395   13.7363 C.3     1  UNL1        0.0000
     42 H           6.5618   -0.1329   14.4987 H       1  UNL1        0.0000
     43 H           6.9604    0.6403   12.9891 H       1  UNL1        0.0000
     44 H           5.3303    0.0638   13.2501 H       1  UNL1        0.0000
     45 C           2.9256    5.9718   15.4459 C.3     1  UNL1        0.0000
     46 H           3.1824    6.2105   16.4734 H       1  UNL1        0.0000
     47 H           2.5659    6.8891   14.9920 H       1  UNL1        0.0000
     48 H           3.8356    5.6893   14.9196 H       1  UNL1        0.0000
     49 C           7.2965    3.1507   15.1095 C.3     1  UNL1        0.0000
     50 H           7.5552    2.8147   16.1090 H       1  UNL1        0.0000
     51 H           7.1693    4.2290   15.1446 H       1  UNL1        0.0000
     52 H           8.1489    2.9517   14.4703 H       1  UNL1        0.0000
     53 C          -0.0722    5.2384   16.0902 C.3     1  UNL1        0.0000
     54 H          -0.0759    5.1480   17.1721 H       1  UNL1        0.0000
     55 H          -0.9294    4.6908   15.7088 H       1  UNL1        0.0000
     56 H          -0.2313    6.2838   15.8524 H       1  UNL1        0.0000
     57 C           3.8948    5.0200   12.1351 C.ar    1  UNL1        0.0000
     58 H           2.9665    5.1253   12.6703 H       1  UNL1        0.0000
     59 N           2.5847    0.8813   13.0807 N.pl3   1  UNL1        0.0000
     60 C           1.4990    0.8262   16.7062 C.3     1  UNL1        0.0000
     61 H           2.0777    0.6427   17.6163 H       1  UNL1        0.0000
     62 H           0.6206    0.1722   16.7547 H       1  UNL1        0.0000
     63 C           2.7959    0.6986   11.7303 C.ar    1  UNL1        0.0000
     64 C           3.1191    3.3506   17.3179 C.3     1  UNL1        0.0000
     65 H           2.9641    2.6176   18.1152 H       1  UNL1        0.0000
     66 H           3.0396    4.3409   17.7812 H       1  UNL1        0.0000
     67 F           0.8260   -0.6041   11.5111 F       1  UNL1        0.0000
     68 C           3.9030    1.2434   11.0662 C.ar    1  UNL1        0.0000
     69 H           4.6096    1.8211   11.6375 H       1  UNL1        0.0000
     70 C           1.9358   -0.0636   10.9277 C.ar    1  UNL1        0.0000
     71 C           1.6464   -1.9726   14.0007 C.3     1  UNL1        0.0000
     72 H           1.5560   -2.4002   14.9946 H       1  UNL1        0.0000
     73 H           2.5960   -2.2977   13.5850 H       1  UNL1        0.0000
     74 H           0.8655   -2.4084   13.3884 H       1  UNL1        0.0000
     75 C           4.1146    1.0444    9.7158 C.ar    1  UNL1        0.0000
     76 H           4.9818    1.4857    9.2496 H       1  UNL1        0.0000
     77 C           0.8425    3.9898   12.7507 C.ar    1  UNL1        0.0000
     78 C           5.3706    5.7661   10.3869 C.ar    1  UNL1        0.0000
     79 H           5.5877    6.4245    9.5622 H       1  UNL1        0.0000
     80 C           3.2351    0.2854    8.9621 C.ar    1  UNL1        0.0000
     81 H           3.4019    0.1297    7.9092 H       1  UNL1        0.0000
     82 C           0.4107    5.2990   12.4966 C.ar    1  UNL1        0.0000
     83 C           2.1315   -0.2752    9.5817 C.ar    1  UNL1        0.0000
     84 H           1.4177   -0.8722    9.0370 H       1  UNL1        0.0000
@<TRIPOS>BOND
     1    81    80    1
     2    80    83   ar
     3    80    75   ar
     4    84    83    1
     5    76    75    1
     6    36    35    1
     7    79    78    1
     8    83    70   ar
     9    75    68   ar
    10    20    19    1
    11    30    29    1
    12    78    29   ar
    13    78    23   ar
    14    35    19   ar
    15    35    21   ar
    16    19    16   ar
    17    29    12   ar
    18    24    23    1
    19    70    67    1
    20    70    63   ar
    21    68    69    1
    22    68    63   ar
    23    23    57   ar
    24    22    21    1
    25    21    82   ar
    26    63    59    1
    27    16    17    1
    28    16    77   ar
    29    12    10    1
    30    12     5   ar
    31    57     5   ar
    32    57    58    1
    33    82    77   ar
    34    82     6    1
    35     5    40    1
    36    77    18    1
    37    43    41    1
    38    59     1    1
    39    44    41    1
    40    27    25    1
    41    74    71    1
    42    73    71    1
    43    40     2    1
    44    41     2    1
    45    41    42    1
    46    18     3    1
    47    28    25    1
    48    71     1    1
    49    71    72    1
    50     1    25    1
    51     1    31    1
    52    25    26    1
    53     2    49    1
    54     2     4    1
    55    52    49    1
    56    34    32    1
    57    48    45    1
    58    47    45    1
    59    49    51    1
    60    49    50    1
    61     3    45    1
    62     3    53    1
    63     3    11    1
    64    45    46    1
    65    31    32    1
    66    31    60    1
    67    55    53    1
    68     4     7    1
    69     4    37    1
    70    32    33    1
    71    32     7    1
    72    56    53    1
    73    15    13    1
    74    53    54    1
    75    38    37    1
    76    11    13    1
    77    11    64    1
    78     8     7    1
    79     7     9    1
    80    13    60    1
    81    13    14    1
    82    60    62    1
    83    60    61    1
    84    37    64    1
    85    37    39    1
    86    64    66    1
    87    64    65    1
