@<TRIPOS>MOLECULE
9,10,11,12,13,14
 240 255 0 0 0
SMALL
GASTEIGER

@<TRIPOS>ATOM
      1 B          19.8063   20.1564   11.1250 B       1  UNL1        0.0000
      2 B          19.1566   19.2821   16.9680 B       1  UNL1        0.0000
      3 O          20.4514   18.8665   11.5251 O.3     1  UNL1        0.0000
      4 O          20.5998   19.1524   16.5931 O.3     1  UNL1        0.0000
      5 O          20.4341   21.2777   11.8917 O.3     1  UNL1        0.0000
      6 O          18.6728   20.6460   16.5911 O.3     1  UNL1        0.0000
      7 O          18.3471   20.0864   11.4591 O.3     1  UNL1        0.0000
      8 O          18.3676   18.2594   16.2036 O.3     1  UNL1        0.0000
      9 N          20.5350   18.7139   12.8624 N.3     1  UNL1        0.0000
     10 N          20.7832   19.0481   15.2532 N.3     1  UNL1        0.0000
     11 N          20.0919   21.2818   13.1946 N.3     1  UNL1        0.0000
     12 N          19.0464   21.0053   15.3481 N.3     1  UNL1        0.0000
     13 N          18.1129   19.6273   12.7141 N.3     1  UNL1        0.0000
     14 N          18.2634   18.5457   14.8862 N.3     1  UNL1        0.0000
     15 C          21.5108   18.0189   13.3636 C.3     1  UNL1        0.0000
     16 C          21.5803   18.1323   14.7899 C.3     1  UNL1        0.0000
     17 C          19.8906   22.4158   13.7974 C.3     1  UNL1        0.0000
     18 C          19.4202   22.2305   15.1294 C.3     1  UNL1        0.0000
     19 C          17.1437   18.7897   12.9240 C.2     1  UNL1        0.0000
     20 C          17.1729   18.2427   14.2506 C.2     1  UNL1        0.0000
     21 C          20.0064   20.4195    9.5590 C.ar    1  UNL1        0.0000
     22 C          21.1923   20.0584    8.9256 C.ar    1  UNL1        0.0000
     23 H          21.9588   19.5638    9.5008 H       1  UNL1        0.0000
     24 C          21.3948   20.3230    7.5818 C.ar    1  UNL1        0.0000
     25 H          22.3297   20.0498    7.1122 H       1  UNL1        0.0000
     26 C          20.4056   20.9473    6.8386 C.ar    1  UNL1        0.0000
     27 H          20.5624   21.1535    5.7890 H       1  UNL1        0.0000
     28 C          19.2171   21.3075    7.4505 C.ar    1  UNL1        0.0000
     29 H          18.4391   21.7956    6.8806 H       1  UNL1        0.0000
     30 C          19.0263   21.0509    8.7978 C.ar    1  UNL1        0.0000
     31 H          18.1021   21.3445    9.2730 H       1  UNL1        0.0000
     32 C          18.9848   19.0038   18.5334 C.ar    1  UNL1        0.0000
     33 C          19.3318   17.7614   19.0574 C.ar    1  UNL1        0.0000
     34 H          19.7030   16.9992   18.3884 H       1  UNL1        0.0000
     35 C          19.2016   17.4909   20.4078 C.ar    1  UNL1        0.0000
     36 H          19.4783   16.5197   20.7938 H       1  UNL1        0.0000
     37 C          18.7170   18.4638   21.2654 C.ar    1  UNL1        0.0000
     38 H          18.6154   18.2563   22.3214 H       1  UNL1        0.0000
     39 C          18.3612   19.7029   20.7613 C.ar    1  UNL1        0.0000
     40 H          17.9790   20.4660   21.4247 H       1  UNL1        0.0000
     41 C          18.4945   19.9670   19.4092 C.ar    1  UNL1        0.0000
     42 H          18.2110   20.9312   19.0156 H       1  UNL1        0.0000
     43 S          22.6771   17.0663   12.4566 S.3     1  UNL1        0.0000
     44 C          21.5388   16.0828   11.4033 C.3     1  UNL1        0.0000
     45 H          21.0768   15.3456   12.0607 H       1  UNL1        0.0000
     46 H          20.7876   16.7548   11.0042 H       1  UNL1        0.0000
     47 C          22.2817   15.4012   10.2708 C.3     1  UNL1        0.0000
     48 H          22.7141   16.1544    9.6126 H       1  UNL1        0.0000
     49 H          23.0985   14.8030   10.6859 H       1  UNL1        0.0000
     50 C          21.3429   14.5053    9.4652 C.3     1  UNL1        0.0000
     51 H          20.8405   13.8179   10.1424 H       1  UNL1        0.0000
     52 H          21.9487   13.8939    8.7999 H       1  UNL1        0.0000
     53 SI         20.0544   15.4213    8.4106 Si      1  UNL1        0.0000
     54 N          18.4167   16.5764    7.0138 N.3     1  UNL1        0.0000
     55 O          21.0179   16.0523    7.2374 O.3     1  UNL1        0.0000
     56 O          19.1034   14.1587    7.9377 O.3     1  UNL1        0.0000
     57 O          19.3695   16.4507    9.4790 O.3     1  UNL1        0.0000
     58 C          20.6771   17.0704    6.3453 C.3     1  UNL1        0.0000
     59 H          21.3666   17.0206    5.4970 H       1  UNL1        0.0000
     60 H          20.7956   18.0387    6.8451 H       1  UNL1        0.0000
     61 C          19.2249   16.9066    5.8683 C.3     1  UNL1        0.0000
     62 H          18.8911   17.8233    5.3630 H       1  UNL1        0.0000
     63 H          19.1773   16.0766    5.1613 H       1  UNL1        0.0000
     64 C          18.1834   14.1796    6.8920 C.3     1  UNL1        0.0000
     65 H          17.4740   13.3603    7.0449 H       1  UNL1        0.0000
     66 H          18.7146   14.0092    5.9462 H       1  UNL1        0.0000
     67 C          17.4450   15.5273    6.8450 C.3     1  UNL1        0.0000
     68 H          16.8762   15.6154    5.9080 H       1  UNL1        0.0000
     69 H          16.7493   15.5712    7.6834 H       1  UNL1        0.0000
     70 C          18.2191   17.2249    9.3317 C.3     1  UNL1        0.0000
     71 H          18.3330   18.0964    9.9792 H       1  UNL1        0.0000
     72 H          17.3537   16.6364    9.6623 H       1  UNL1        0.0000
     73 C          18.0423   17.6732    7.8731 C.3     1  UNL1        0.0000
     74 H          17.0109   18.0103    7.7029 H       1  UNL1        0.0000
     75 H          18.7193   18.5066    7.6844 H       1  UNL1        0.0000
     76 S          22.5784   17.0057   15.6700 S.3     1  UNL1        0.0000
     77 C          23.0377   17.8749   17.2181 C.3     1  UNL1        0.0000
     78 H          23.1668   18.9238   16.9639 H       1  UNL1        0.0000
     79 H          22.2285   17.7698   17.9383 H       1  UNL1        0.0000
     80 C          24.3373   17.2691   17.7223 C.3     1  UNL1        0.0000
     81 H          24.1781   16.2292   18.0108 H       1  UNL1        0.0000
     82 H          25.0721   17.2758   16.9161 H       1  UNL1        0.0000
     83 C          24.8957   18.0490   18.9043 C.3     1  UNL1        0.0000
     84 H          24.2027   17.9855   19.7396 H       1  UNL1        0.0000
     85 H          24.9658   19.0992   18.6328 H       1  UNL1        0.0000
     86 SI         26.5977   17.4090   19.4094 Si      1  UNL1        0.0000
     87 O          26.3239   15.8514   19.8551 O.3     1  UNL1        0.0000
     88 O          27.4908   17.5630   18.0304 O.3     1  UNL1        0.0000
     89 O          27.0660   18.4066   20.6256 O.3     1  UNL1        0.0000
     90 N          28.9378   16.5209   20.0723 N.3     1  UNL1        0.0000
     91 C          27.1015   15.0841   20.7245 C.3     1  UNL1        0.0000
     92 H          26.7385   14.0535   20.6786 H       1  UNL1        0.0000
     93 H          26.9740   15.4605   21.7468 H       1  UNL1        0.0000
     94 C          28.5866   15.1494   20.3277 C.3     1  UNL1        0.0000
     95 H          29.2021   14.6946   21.1176 H       1  UNL1        0.0000
     96 H          28.7273   14.5823   19.4065 H       1  UNL1        0.0000
     97 C          28.6244   16.8217   17.6916 C.3     1  UNL1        0.0000
     98 H          29.0685   17.2745   16.7998 H       1  UNL1        0.0000
     99 H          28.3253   15.7933   17.4558 H       1  UNL1        0.0000
    100 C          29.6362   16.8170   18.8505 C.3     1  UNL1        0.0000
    101 H          30.4414   16.0986   18.6369 H       1  UNL1        0.0000
    102 H          30.0722   17.8134   18.9375 H       1  UNL1        0.0000
    103 C          28.3753   18.6778   21.0220 C.3     1  UNL1        0.0000
    104 H          28.3329   19.2348   21.9622 H       1  UNL1        0.0000
    105 H          28.8596   19.3050   20.2624 H       1  UNL1        0.0000
    106 C          29.1725   17.3748   21.2055 C.3     1  UNL1        0.0000
    107 H          30.2380   17.6092   21.3470 H       1  UNL1        0.0000
    108 H          28.8061   16.8659   22.0981 H       1  UNL1        0.0000
    109 S          20.0807   24.0058   13.0671 S.3     1  UNL1        0.0000
    110 C          18.7725   23.8293   11.7957 C.3     1  UNL1        0.0000
    111 H          18.7375   24.7945   11.2924 H       1  UNL1        0.0000
    112 H          19.0844   23.0586   11.0917 H       1  UNL1        0.0000
    113 C          17.4534   23.4897   12.4673 C.3     1  UNL1        0.0000
    114 H          17.5629   22.5569   13.0227 H       1  UNL1        0.0000
    115 H          17.1986   24.2721   13.1837 H       1  UNL1        0.0000
    116 C          16.3077   23.3127   11.4844 C.3     1  UNL1        0.0000
    117 H          16.5899   22.5745   10.7373 H       1  UNL1        0.0000
    118 H          16.1269   24.2461   10.9567 H       1  UNL1        0.0000
    119 SI         14.7531   22.7566   12.4161 Si      1  UNL1        0.0000
    120 N          12.8007   22.0682   13.6529 N.3     1  UNL1        0.0000
    121 O          13.8034   22.2047   11.1905 O.3     1  UNL1        0.0000
    122 O          15.3920   21.6087   13.4060 O.3     1  UNL1        0.0000
    123 O          14.2947   24.1826   13.0966 O.3     1  UNL1        0.0000
    124 C          12.4410   21.9102   11.2744 C.3     1  UNL1        0.0000
    125 H          12.1916   21.2204   10.4634 H       1  UNL1        0.0000
    126 H          11.8722   22.8389   11.1363 H       1  UNL1        0.0000
    127 C          12.1204   21.2936   12.6440 C.3     1  UNL1        0.0000
    128 H          11.0330   21.2522   12.7994 H       1  UNL1        0.0000
    129 H          12.5197   20.2792   12.6692 H       1  UNL1        0.0000
    130 C          14.7149   20.7205   14.2435 C.3     1  UNL1        0.0000
    131 H          15.3682   20.4833   15.0881 H       1  UNL1        0.0000
    132 H          14.5088   19.7931   13.6951 H       1  UNL1        0.0000
    133 C          13.3986   21.3355   14.7424 C.3     1  UNL1        0.0000
    134 H          12.7448   20.5466   15.1368 H       1  UNL1        0.0000
    135 H          13.6223   22.0403   15.5439 H       1  UNL1        0.0000
    136 C          13.3676   24.3612   14.1219 C.3     1  UNL1        0.0000
    137 H          12.9817   25.3832   14.0589 H       1  UNL1        0.0000
    138 H          13.8744   24.2382   15.0873 H       1  UNL1        0.0000
    139 C          12.2218   23.3439   13.9902 C.3     1  UNL1        0.0000
    140 H          11.6315   23.3134   14.9165 H       1  UNL1        0.0000
    141 H          11.5725   23.6547   13.1708 H       1  UNL1        0.0000
    142 S          19.4485   23.5071   16.3401 S.3     1  UNL1        0.0000
    143 C          20.7364   22.7615   17.4095 C.3     1  UNL1        0.0000
    144 H          20.9172   23.5046   18.1851 H       1  UNL1        0.0000
    145 H          20.3333   21.8533   17.8564 H       1  UNL1        0.0000
    146 C          21.9897   22.4804   16.5995 C.3     1  UNL1        0.0000
    147 H          22.3069   23.3907   16.0885 H       1  UNL1        0.0000
    148 H          21.7711   21.7300   15.8372 H       1  UNL1        0.0000
    149 C          23.1294   21.9633   17.4611 C.3     1  UNL1        0.0000
    150 H          22.7957   21.0804   18.0024 H       1  UNL1        0.0000
    151 H          23.3918   22.7108   18.2062 H       1  UNL1        0.0000
    152 SI         24.6296   21.5558   16.3793 Si      1  UNL1        0.0000
    153 N          26.5618   21.0476   14.9803 N.3     1  UNL1        0.0000
    154 O          24.9857   23.0415   15.7683 O.3     1  UNL1        0.0000
    155 O          25.6841   20.9780   17.4972 O.3     1  UNL1        0.0000
    156 O          23.9883   20.4698   15.3222 O.3     1  UNL1        0.0000
    157 C          25.8052   23.3162   14.6738 C.3     1  UNL1        0.0000
    158 H          26.1259   24.3599   14.7428 H       1  UNL1        0.0000
    159 H          25.2256   23.1881   13.7512 H       1  UNL1        0.0000
    160 C          27.0231   22.3770   14.6704 C.3     1  UNL1        0.0000
    161 H          27.5435   22.4342   13.7039 H       1  UNL1        0.0000
    162 H          27.7085   22.6940   15.4575 H       1  UNL1        0.0000
    163 C          27.0552   20.7886   17.3296 C.3     1  UNL1        0.0000
    164 H          27.3833   20.0517   18.0658 H       1  UNL1        0.0000
    165 H          27.5677   21.7423   17.5128 H       1  UNL1        0.0000
    166 C          27.3539   20.2837   15.9108 C.3     1  UNL1        0.0000
    167 H          28.4320   20.3479   15.7037 H       1  UNL1        0.0000
    168 H          27.0447   19.2400   15.8573 H       1  UNL1        0.0000
    169 C          24.6897   19.6170   14.4660 C.3     1  UNL1        0.0000
    170 H          24.0228   19.3195   13.6521 H       1  UNL1        0.0000
    171 H          24.9851   18.7175   15.0189 H       1  UNL1        0.0000
    172 C          25.9348   20.3183   13.9062 C.3     1  UNL1        0.0000
    173 H          26.6035   19.5797   13.4437 H       1  UNL1        0.0000
    174 H          25.6204   21.0327   13.1445 H       1  UNL1        0.0000
    175 S          15.9096   18.2043   11.8347 S.3     1  UNL1        0.0000
    176 C          15.7395   19.4988   10.5491 C.3     1  UNL1        0.0000
    177 H          15.5594   20.4400   11.0611 H       1  UNL1        0.0000
    178 H          16.6660   19.5550    9.9854 H       1  UNL1        0.0000
    179 C          14.5776   19.1414    9.6416 C.3     1  UNL1        0.0000
    180 H          14.7430   18.1633    9.1878 H       1  UNL1        0.0000
    181 H          13.6586   19.0846   10.2244 H       1  UNL1        0.0000
    182 C          14.4193   20.1910    8.5502 C.3     1  UNL1        0.0000
    183 H          15.3303   20.2330    7.9574 H       1  UNL1        0.0000
    184 H          14.3047   21.1648    9.0190 H       1  UNL1        0.0000
    185 SI         12.9378   19.8209    7.4425 Si      1  UNL1        0.0000
    186 N          10.9268   19.2958    5.9823 N.3     1  UNL1        0.0000
    187 O          13.2464   18.2913    6.9169 O.3     1  UNL1        0.0000
    188 O          11.6717   19.9474    8.4896 O.3     1  UNL1        0.0000
    189 O          13.0130   20.9767    6.2805 O.3     1  UNL1        0.0000
    190 C          12.7161   17.6833    5.7780 C.3     1  UNL1        0.0000
    191 H          12.9399   16.6137    5.8312 H       1  UNL1        0.0000
    192 H          13.2018   18.1028    4.8882 H       1  UNL1        0.0000
    193 C          11.1970   17.9109    5.6980 C.3     1  UNL1        0.0000
    194 H          10.8242   17.5983    4.7120 H       1  UNL1        0.0000
    195 H          10.7128   17.3027    6.4632 H       1  UNL1        0.0000
    196 C          10.4112   19.3659    8.3428 C.3     1  UNL1        0.0000
    197 H           9.7417   19.8209    9.0788 H       1  UNL1        0.0000
    198 H          10.4862   18.2912    8.5501 H       1  UNL1        0.0000
    199 C           9.8738   19.5874    6.9191 C.3     1  UNL1        0.0000
    200 H           8.9776   18.9710    6.7579 H       1  UNL1        0.0000
    201 H           9.5997   20.6376    6.8098 H       1  UNL1        0.0000
    202 C          11.9514   21.4315    5.4981 C.3     1  UNL1        0.0000
    203 H          12.3648   22.0408    4.6896 H       1  UNL1        0.0000
    204 H          11.2954   22.0590    6.1137 H       1  UNL1        0.0000
    205 C          11.1553   20.2466    4.9259 C.3     1  UNL1        0.0000
    206 H          10.2225   20.6078    4.4698 H       1  UNL1        0.0000
    207 H          11.7565   19.7635    4.1544 H       1  UNL1        0.0000
    208 S          15.7963   17.3312   14.8313 S.3     1  UNL1        0.0000
    209 C          16.5335   16.1784   16.0597 C.3     1  UNL1        0.0000
    210 H          17.4514   15.7983   15.6143 H       1  UNL1        0.0000
    211 H          16.7703   16.7432   16.9590 H       1  UNL1        0.0000
    212 C          15.5497   15.0585   16.3517 C.3     1  UNL1        0.0000
    213 H          15.2708   14.5567   15.4253 H       1  UNL1        0.0000
    214 H          16.0476   14.3309   16.9944 H       1  UNL1        0.0000
    215 C          14.2921   15.5591   17.0461 C.3     1  UNL1        0.0000
    216 H          13.7986   16.2848   16.4034 H       1  UNL1        0.0000
    217 H          14.5743   16.0828   17.9568 H       1  UNL1        0.0000
    218 SI         13.1008   14.1556   17.4664 Si      1  UNL1        0.0000
    219 N          11.5099   12.2461   18.0494 N.3     1  UNL1        0.0000
    220 O          12.9684   13.3291   16.0517 O.3     1  UNL1        0.0000
    221 O          13.8951   13.3515   18.6592 O.3     1  UNL1        0.0000
    222 O          11.7344   14.9384   17.9370 O.3     1  UNL1        0.0000
    223 C          11.9170   12.4918   15.6777 C.3     1  UNL1        0.0000
    224 H          12.2242   11.9453   14.7814 H       1  UNL1        0.0000
    225 H          11.0389   13.1034   15.4359 H       1  UNL1        0.0000
    226 C          11.5727   11.5123   16.8131 C.3     1  UNL1        0.0000
    227 H          10.6339   10.9881   16.5817 H       1  UNL1        0.0000
    228 H          12.3732   10.7756   16.8926 H       1  UNL1        0.0000
    229 C          13.7079   12.0202   19.0341 C.3     1  UNL1        0.0000
    230 H          14.2286   11.8610   19.9827 H       1  UNL1        0.0000
    231 H          14.1520   11.3671   18.2725 H       1  UNL1        0.0000
    232 C          12.2101   11.7030   19.1832 C.3     1  UNL1        0.0000
    233 H          12.0677   10.6179   19.2909 H       1  UNL1        0.0000
    234 H          11.8375   12.1946   20.0830 H       1  UNL1        0.0000
    235 C          10.7395   14.4232   18.7675 C.3     1  UNL1        0.0000
    236 H           9.8850   15.1052   18.7337 H       1  UNL1        0.0000
    237 H          11.1171   14.3805   19.7965 H       1  UNL1        0.0000
    238 C          10.3225   13.0162   18.3073 C.3     1  UNL1        0.0000
    239 H           9.6720   12.5541   19.0644 H       1  UNL1        0.0000
    240 H           9.7632   13.1065   17.3750 H       1  UNL1        0.0000
@<TRIPOS>BOND
     1   207   205    1
     2   206   205    1
     3   203   202    1
     4   194   193    1
     5   192   190    1
     6   205   202    1
     7   205   186    1
     8    63    61    1
     9    62    61    1
    10    59    58    1
    11   202   204    1
    12   202   189    1
    13   193   190    1
    14   193   186    1
    15   193   195    1
    16   190   191    1
    17   190   187    1
    18    27    26    1
    19    61    58    1
    20    61    54    1
    21    68    67    1
    22    66    64    1
    23   186   199    1
    24   189   185    1
    25    58    60    1
    26    58    55    1
    27   200   199    1
    28   201   199    1
    29    26    28   ar
    30    26    24   ar
    31    67    64    1
    32    67    54    1
    33    67    69    1
    34    29    28    1
    35    64    65    1
    36    64    56    1
    37   187   185    1
    38   199   196    1
    39    54    73    1
    40    25    24    1
    41    55    53    1
    42   185   188    1
    43   185   182    1
    44    28    30   ar
    45    24    22   ar
    46    75    73    1
    47    74    73    1
    48    73    70    1
    49    56    53    1
    50   183   182    1
    51   196   188    1
    52   196   198    1
    53   196   197    1
    54    53    50    1
    55    53    57    1
    56   182   184    1
    57   182   179    1
    58    30    31    1
    59    30    21   ar
    60    52    50    1
    61    22    23    1
    62    22    21   ar
    63   180   179    1
    64    70    57    1
    65    70    72    1
    66    70    71    1
    67    50    51    1
    68    50    47    1
    69    21     1    1
    70    48    47    1
    71   179   181    1
    72   179   176    1
    73   178   176    1
    74    47    49    1
    75    47    44    1
    76   125   124    1
    77   176   177    1
    78   176   175    1
    79   117   116    1
    80   118   116    1
    81    46    44    1
    82   112   110    1
    83     1     7    1
    84     1     3    1
    85     1     5    1
    86   126   124    1
    87   121   124    1
    88   121   119    1
    89   124   127    1
    90   111   110    1
    91    44    45    1
    92    44    43    1
    93     7    13    1
    94   116   119    1
    95   116   113    1
    96     3     9    1
    97   110   113    1
    98   110   109    1
    99   175    19    1
   100     5    11    1
   101   119   123    1
   102   119   122    1
   103    43    15    1
   104   113   114    1
   105   113   115    1
   106   127   129    1
   107   127   128    1
   108   127   120    1
   109    13    19    1
   110     9    15    1
   111    19    20    2
   112   109    17    1
   113   123   136    1
   114   174   172    1
   115   141   139    1
   116    11    17    1
   117    15    16    1
   118   122   130    1
   119   173   172    1
   120   170   169    1
   121   120   139    1
   122   120   133    1
   123   132   130    1
   124   161   160    1
   125   159   157    1
   126    17    18    1
   127   172   169    1
   128   172   153    1
   129   139   136    1
   130   139   140    1
   131   137   136    1
   132   136   138    1
   133   130   133    1
   134   130   131    1
   135    20   208    1
   136    20    14    1
   137   169   171    1
   138   169   156    1
   139   160   157    1
   140   160   153    1
   141   160   162    1
   142   157   158    1
   143   157   154    1
   144   133   134    1
   145   133   135    1
   146   224   223    1
   147    16    10    1
   148    16    76    1
   149   208   209    1
   150    14     8    1
   151   153   166    1
   152    18    12    1
   153    18   142    1
   154    10     4    1
   155   156   152    1
   156    12     6    1
   157   213   212    1
   158   225   223    1
   159   210   209    1
   160    76    77    1
   161   223   220    1
   162   223   226    1
   163   167   166    1
   164   154   152    1
   165   148   146    1
   166   168   166    1
   167   166   163    1
   168   220   218    1
   169   209   212    1
   170   209   211    1
   171   147   146    1
   172     8     2    1
   173   142   143    1
   174   212   214    1
   175   212   215    1
   176   152   149    1
   177   152   155    1
   178   216   215    1
   179   227   226    1
   180     6     2    1
   181     4     2    1
   182   146   143    1
   183   146   149    1
   184    98    97    1
   185   226   228    1
   186   226   219    1
   187    82    80    1
   188    78    77    1
   189     2    32    1
   190   215   218    1
   191   215   217    1
   192    77    80    1
   193    77    79    1
   194   163   155    1
   195   163   165    1
   196   163   164    1
   197   240   238    1
   198   143   145    1
   199   143   144    1
   200    99    97    1
   201   149   150    1
   202   149   151    1
   203   218   222    1
   204   218   221    1
   205    97    88    1
   206    97   100    1
   207    80    81    1
   208    80    83    1
   209   222   235    1
   210    88    86    1
   211   219   238    1
   212   219   232    1
   213   231   229    1
   214   238   235    1
   215   238   239    1
   216    34    33    1
   217    32    33   ar
   218    32    41   ar
   219    85    83    1
   220   101   100    1
   221   221   229    1
   222   236   235    1
   223   235   237    1
   224   100   102    1
   225   100    90    1
   226    83    86    1
   227    83    84    1
   228    42    41    1
   229   229   232    1
   230   229   230    1
   231    33    35   ar
   232   232   233    1
   233   232   234    1
   234    96    94    1
   235    41    39   ar
   236    86    87    1
   237    86    89    1
   238    87    91    1
   239    90    94    1
   240    90   106    1
   241   105   103    1
   242    94    91    1
   243    94    95    1
   244    35    36    1
   245    35    37   ar
   246    89   103    1
   247    92    91    1
   248    91    93    1
   249    39    37   ar
   250    39    40    1
   251   103   106    1
   252   103   104    1
   253   106   107    1
   254   106   108    1
   255    37    38    1
