@<TRIPOS>MOLECULE
10,11,12,13,14,15
 82 87 0 0 0
SMALL
GASTEIGER

@<TRIPOS>ATOM
      1 SI          1.0613    9.5126   11.6722 Si      1  UNL1        0.0000
      2 F           1.9454    3.2064   11.0468 F       1  UNL1        0.0000
      3 F           7.7128    6.0060    5.2626 F       1  UNL1        0.0000
      4 O           2.5105    5.0417    9.7405 O.3     1  UNL1        0.0000
      5 O           6.6247    6.6082    7.2275 O.3     1  UNL1        0.0000
      6 O           4.2061    3.6215   10.7400 O.3     1  UNL1        0.0000
      7 O           7.3014    4.3117    6.7893 O.3     1  UNL1        0.0000
      8 O           2.8189    2.7647    8.9447 O.3     1  UNL1        0.0000
      9 O           5.5114    5.3184    5.4976 O.3     1  UNL1        0.0000
     10 N           3.5034    5.6125    9.0341 N.3     1  UNL1        0.0000
     11 N           5.5687    6.3333    8.0108 N.3     1  UNL1        0.0000
     12 N           5.1827    3.8057    9.8279 N.3     1  UNL1        0.0000
     13 N           6.5724    3.9392    7.8630 N.3     1  UNL1        0.0000
     14 N           3.5169    3.2710    7.9069 N.3     1  UNL1        0.0000
     15 N           4.6396    4.6449    6.2780 N.3     1  UNL1        0.0000
     16 C           3.7172    6.9011    9.1829 C.2     1  UNL1        0.0000
     17 C           4.8849    7.3226    8.4931 C.2     1  UNL1        0.0000
     18 H           5.1791    8.3542    8.3638 H       1  UNL1        0.0000
     19 C           6.3084    3.1580    9.9781 C.3     1  UNL1        0.0000
     20 C           7.1855    3.3541    8.8586 C.3     1  UNL1        0.0000
     21 C           3.0826    3.0465    6.6941 C.3     1  UNL1        0.0000
     22 C           3.8443    3.7713    5.7171 C.3     1  UNL1        0.0000
     23 C           2.9013    7.7588    9.9447 C.1     1  UNL1        0.0000
     24 C           2.1845    8.4692   10.6118 C.1     1  UNL1        0.0000
     25 C          -0.1487    8.3413   12.5571 C.3     1  UNL1        0.0000
     26 H          -0.8218    8.8814   13.2173 H       1  UNL1        0.0000
     27 H           0.3853    7.6088   13.1547 H       1  UNL1        0.0000
     28 H          -0.7547    7.7937   11.8417 H       1  UNL1        0.0000
     29 C           2.1648   10.4535   12.9106 C.3     1  UNL1        0.0000
     30 H           2.8792   11.0919   12.3991 H       1  UNL1        0.0000
     31 H           2.7277    9.7656   13.5343 H       1  UNL1        0.0000
     32 H           1.5731   11.0841   13.5680 H       1  UNL1        0.0000
     33 C           0.1504   10.7264   10.5172 C.3     1  UNL1        0.0000
     34 H           0.8486   11.3625    9.9811 H       1  UNL1        0.0000
     35 H          -0.5218   11.3729   11.0740 H       1  UNL1        0.0000
     36 H          -0.4420   10.1944    9.7787 H       1  UNL1        0.0000
     37 C           6.6259    2.2823   11.1101 C.ar    1  UNL1        0.0000
     38 C           7.2723    1.0666   10.8815 C.ar    1  UNL1        0.0000
     39 H           7.5261    0.7769    9.8731 H       1  UNL1        0.0000
     40 C           7.5676    0.2278   11.9380 C.ar    1  UNL1        0.0000
     41 H           8.0635   -0.7131   11.7514 H       1  UNL1        0.0000
     42 C           7.2265    0.5887   13.2320 C.ar    1  UNL1        0.0000
     43 H           7.4606   -0.0689   14.0558 H       1  UNL1        0.0000
     44 C           6.5788    1.7903   13.4641 C.ar    1  UNL1        0.0000
     45 H           6.3058    2.0721   14.4697 H       1  UNL1        0.0000
     46 C           6.2746    2.6340   12.4118 C.ar    1  UNL1        0.0000
     47 H           5.7674    3.5677   12.5939 H       1  UNL1        0.0000
     48 C           8.6081    3.0006    8.8752 C.ar    1  UNL1        0.0000
     49 C           9.3613    3.2248   10.0285 C.ar    1  UNL1        0.0000
     50 H           8.8940    3.6663   10.8955 H       1  UNL1        0.0000
     51 C          10.7042    2.9037   10.0540 C.ar    1  UNL1        0.0000
     52 H          11.2805    3.0852   10.9489 H       1  UNL1        0.0000
     53 C          11.3119    2.3546    8.9359 C.ar    1  UNL1        0.0000
     54 H          12.3616    2.1031    8.9599 H       1  UNL1        0.0000
     55 C          10.5713    2.1369    7.7863 C.ar    1  UNL1        0.0000
     56 H          11.0424    1.7159    6.9110 H       1  UNL1        0.0000
     57 C           9.2275    2.4601    7.7502 C.ar    1  UNL1        0.0000
     58 H           8.6533    2.2931    6.8531 H       1  UNL1        0.0000
     59 C           1.9214    2.2157    6.3613 C.ar    1  UNL1        0.0000
     60 C           1.6918    1.0080    7.0171 C.ar    1  UNL1        0.0000
     61 H           2.3789    0.6749    7.7783 H       1  UNL1        0.0000
     62 C           0.5897    0.2398    6.6903 C.ar    1  UNL1        0.0000
     63 H           0.4213   -0.6961    7.2014 H       1  UNL1        0.0000
     64 C          -0.2964    0.6677    5.7162 C.ar    1  UNL1        0.0000
     65 H          -1.1573    0.0664    5.4650 H       1  UNL1        0.0000
     66 C          -0.0801    1.8742    5.0693 C.ar    1  UNL1        0.0000
     67 H          -0.7746    2.2169    4.3168 H       1  UNL1        0.0000
     68 C           1.0208    2.6456    5.3858 C.ar    1  UNL1        0.0000
     69 H           1.1790    3.5918    4.8913 H       1  UNL1        0.0000
     70 C           3.7749    3.5066    4.2770 C.ar    1  UNL1        0.0000
     71 C           3.8199    4.5479    3.3521 C.ar    1  UNL1        0.0000
     72 H           3.8996    5.5657    3.6981 H       1  UNL1        0.0000
     73 C           3.7585    4.2759    1.9979 C.ar    1  UNL1        0.0000
     74 H           3.7909    5.0890    1.2885 H       1  UNL1        0.0000
     75 C           3.6598    2.9690    1.5512 C.ar    1  UNL1        0.0000
     76 H           3.6143    2.7600    0.4929 H       1  UNL1        0.0000
     77 C           3.6268    1.9283    2.4659 C.ar    1  UNL1        0.0000
     78 H           3.5602    0.9070    2.1216 H       1  UNL1        0.0000
     79 C           3.6825    2.1909    3.8206 C.ar    1  UNL1        0.0000
     80 H           3.6712    1.3779    4.5305 H       1  UNL1        0.0000
     81 B           2.8399    3.6475   10.1426 B       1  UNL1        0.0000
     82 B           6.8175    5.5710    6.1682 B       1  UNL1        0.0000
@<TRIPOS>BOND
     1    76    75    1
     2    74    73    1
     3    75    73   ar
     4    75    77   ar
     5    73    71   ar
     6    78    77    1
     7    77    79   ar
     8    71    72    1
     9    71    70   ar
    10    79    70   ar
    11    79    80    1
    12    70    22    1
    13    67    66    1
    14    69    68    1
    15    66    68   ar
    16    66    64   ar
    17     3    82    1
    18    68    59   ar
    19    65    64    1
    20     9    82    1
    21     9    15    1
    22    64    62   ar
    23    22    15    1
    24    22    21    1
    25    82     7    1
    26    82     5    1
    27    59    21    1
    28    59    60   ar
    29    62    60   ar
    30    62    63    1
    31    21    14    1
    32     7    13    1
    33    58    57    1
    34    56    55    1
    35    60    61    1
    36     5    11    1
    37    57    55   ar
    38    57    48   ar
    39    55    53   ar
    40    13    20    1
    41    14     8    1
    42    11    17    1
    43    18    17    1
    44    17    16    2
    45    20    48    1
    46    20    19    1
    47    48    49   ar
    48    53    54    1
    49    53    51   ar
    50     8    81    1
    51    10    16    1
    52    10     4    1
    53    16    23    1
    54     4    81    1
    55    36    33    1
    56    12    19    1
    57    12     6    1
    58    39    38    1
    59    23    24    3
    60    19    37    1
    61    34    33    1
    62    49    51   ar
    63    49    50    1
    64    51    52    1
    65    81     6    1
    66    81     2    1
    67    33    35    1
    68    33     1    1
    69    24     1    1
    70    38    37   ar
    71    38    40   ar
    72    37    46   ar
    73     1    25    1
    74     1    29    1
    75    41    40    1
    76    28    25    1
    77    40    42   ar
    78    30    29    1
    79    46    47    1
    80    46    44   ar
    81    25    27    1
    82    25    26    1
    83    29    31    1
    84    29    32    1
    85    42    44   ar
    86    42    43    1
    87    44    45    1
