@<TRIPOS>MOLECULE
2,4,5
 78 77 0 0 0
SMALL
GASTEIGER

@<TRIPOS>ATOM
      1 SI          6.0480   -4.2320   -3.0396 Si      1  UNL1        0.0000
      2 P           6.1527   -2.6439   -6.9872 P.3     1  UNL1        0.0000
      3 P           1.7400   -1.6232   -2.7114 P.3     1  UNL1        0.0000
      4 N           7.0169   -4.9374   -4.2527 N.3     1  UNL1        0.0000
      5 N           5.4204   -2.9227   -4.0457 N.3     1  UNL1        0.0000
      6 C           7.8785   -6.0850   -4.2547 C.3     1  UNL1        0.0000
      7 C           8.1265   -6.4194   -5.7361 C.3     1  UNL1        0.0000
      8 H           7.1741   -6.3303   -6.2721 H       1  UNL1        0.0000
      9 H           8.5041   -7.4311   -5.8528 H       1  UNL1        0.0000
     10 H           8.8446   -5.7284   -6.1670 H       1  UNL1        0.0000
     11 C           9.2039   -5.7816   -3.5438 C.3     1  UNL1        0.0000
     12 H           9.0200   -5.5726   -2.4933 H       1  UNL1        0.0000
     13 H           9.6754   -4.9089   -3.9892 H       1  UNL1        0.0000
     14 H           9.8817   -6.6280   -3.6238 H       1  UNL1        0.0000
     15 C           7.1971   -7.2818   -3.5789 C.3     1  UNL1        0.0000
     16 H           6.2441   -7.4739   -4.0659 H       1  UNL1        0.0000
     17 H           7.0123   -7.0603   -2.5315 H       1  UNL1        0.0000
     18 H           7.8199   -8.1707   -3.6456 H       1  UNL1        0.0000
     19 C           6.9739   -3.5544   -1.4989 C.3     1  UNL1        0.0000
     20 H           7.2904   -4.3636   -0.8485 H       1  UNL1        0.0000
     21 H           6.3483   -2.8911   -0.9087 H       1  UNL1        0.0000
     22 H           7.8622   -2.9993   -1.7827 H       1  UNL1        0.0000
     23 C           4.5844   -5.2737   -2.3871 C.3     1  UNL1        0.0000
     24 H           4.9411   -6.0333   -1.6998 H       1  UNL1        0.0000
     25 H           4.0803   -5.7836   -3.2008 H       1  UNL1        0.0000
     26 H           3.8448   -4.6820   -1.8596 H       1  UNL1        0.0000
     27 C           6.2989   -1.8065   -4.3142 C.3     1  UNL1        0.0000
     28 H           7.3168   -2.1667   -4.1752 H       1  UNL1        0.0000
     29 H           6.1384   -0.9912   -3.5918 H       1  UNL1        0.0000
     30 C           6.1487   -1.2520   -5.7334 C.3     1  UNL1        0.0000
     31 H           6.9430   -0.5325   -5.9417 H       1  UNL1        0.0000
     32 H           5.1951   -0.7298   -5.8201 H       1  UNL1        0.0000
     33 C           7.9249   -2.5875   -7.6175 C.3     1  UNL1        0.0000
     34 H           8.1415   -1.6516   -8.1423 H       1  UNL1        0.0000
     35 C           8.8772   -2.7380   -6.4357 C.3     1  UNL1        0.0000
     36 H           9.8771   -3.0013   -6.7792 H       1  UNL1        0.0000
     37 H           8.5092   -3.5234   -5.7730 H       1  UNL1        0.0000
     38 H           8.9529   -1.8137   -5.8682 H       1  UNL1        0.0000
     39 C           8.0890   -3.7603   -8.5799 C.3     1  UNL1        0.0000
     40 H           9.1309   -3.8826   -8.8737 H       1  UNL1        0.0000
     41 H           7.5025   -3.6092   -9.4831 H       1  UNL1        0.0000
     42 H           7.7450   -4.6753   -8.0970 H       1  UNL1        0.0000
     43 C           5.2705   -1.7635   -8.4059 C.3     1  UNL1        0.0000
     44 H           5.5097   -2.3583   -9.2941 H       1  UNL1        0.0000
     45 C           5.6896   -0.3185   -8.6693 C.3     1  UNL1        0.0000
     46 H           5.2115    0.0353   -9.5821 H       1  UNL1        0.0000
     47 H           6.7642   -0.2222   -8.7998 H       1  UNL1        0.0000
     48 H           5.3804    0.3366   -7.8588 H       1  UNL1        0.0000
     49 C           3.7624   -1.8430   -8.1848 C.3     1  UNL1        0.0000
     50 H           3.2294   -1.4561   -9.0524 H       1  UNL1        0.0000
     51 H           3.4622   -1.2534   -7.3204 H       1  UNL1        0.0000
     52 H           3.4638   -2.8740   -8.0217 H       1  UNL1        0.0000
     53 C           4.0156   -2.6035   -4.0156 C.3     1  UNL1        0.0000
     54 H           3.4673   -3.5429   -3.9671 H       1  UNL1        0.0000
     55 H           3.7262   -2.1194   -4.9521 H       1  UNL1        0.0000
     56 C           3.6030   -1.7330   -2.8217 C.3     1  UNL1        0.0000
     57 H           4.0375   -0.7330   -2.8896 H       1  UNL1        0.0000
     58 H           3.9775   -2.2098   -1.9142 H       1  UNL1        0.0000
     59 C           1.5267   -1.4111   -0.8470 C.3     1  UNL1        0.0000
     60 H           0.4716   -1.1373   -0.7216 H       1  UNL1        0.0000
     61 C           1.7250   -2.7760   -0.1890 C.3     1  UNL1        0.0000
     62 H           1.4148   -2.7453    0.8547 H       1  UNL1        0.0000
     63 H           2.7705   -3.0773   -0.2182 H       1  UNL1        0.0000
     64 H           1.1355   -3.5345   -0.7016 H       1  UNL1        0.0000
     65 C           2.3900   -0.3522   -0.1703 C.3     1  UNL1        0.0000
     66 H           2.1896   -0.3508    0.9009 H       1  UNL1        0.0000
     67 H           2.1736    0.6432   -0.5500 H       1  UNL1        0.0000
     68 H           3.4487   -0.5572   -0.3126 H       1  UNL1        0.0000
     69 C           1.5120    0.1577   -3.2931 C.3     1  UNL1        0.0000
     70 H           2.1988    0.8148   -2.7464 H       1  UNL1        0.0000
     71 C           1.8391    0.2372   -4.7819 C.3     1  UNL1        0.0000
     72 H           1.6375    1.2386   -5.1615 H       1  UNL1        0.0000
     73 H           1.2312   -0.4710   -5.3425 H       1  UNL1        0.0000
     74 H           2.8875    0.0120   -4.9636 H       1  UNL1        0.0000
     75 C           0.0749    0.6075   -3.0512 C.3     1  UNL1        0.0000
     76 H          -0.0850    1.6025   -3.4655 H       1  UNL1        0.0000
     77 H          -0.1572    0.6429   -1.9894 H       1  UNL1        0.0000
     78 H          -0.6194   -0.0788   -3.5328 H       1  UNL1        0.0000
@<TRIPOS>BOND
     1    46    45    1
     2    41    39    1
     3    44    43    1
     4    50    49    1
     5    40    39    1
     6    47    45    1
     7    45    43    1
     8    45    48    1
     9    39    42    1
    10    39    33    1
    11    43    49    1
    12    43     2    1
    13    49    52    1
    14    49    51    1
    15    34    33    1
    16    33     2    1
    17    33    35    1
    18     2    30    1
    19    36    35    1
    20    35    38    1
    21    35    37    1
    22     8     7    1
    23    10     7    1
    24    31    30    1
    25     9     7    1
    26    32    30    1
    27     7     6    1
    28    30    27    1
    29    73    71    1
    30    72    71    1
    31    74    71    1
    32    55    53    1
    33    71    69    1
    34    27    28    1
    35    27     5    1
    36    27    29    1
    37     6     4    1
    38     6    15    1
    39     6    11    1
    40     4     1    1
    41    16    15    1
    42     5    53    1
    43     5     1    1
    44    53    54    1
    45    53    56    1
    46    13    11    1
    47    18    15    1
    48    14    11    1
    49    15    17    1
    50    11    12    1
    51    78    75    1
    52    76    75    1
    53    69    75    1
    54    69    70    1
    55    69     3    1
    56    25    23    1
    57    75    77    1
    58     1    23    1
    59     1    19    1
    60    57    56    1
    61    56     3    1
    62    56    58    1
    63     3    59    1
    64    23    26    1
    65    23    24    1
    66    22    19    1
    67    19    21    1
    68    19    20    1
    69    59    60    1
    70    59    61    1
    71    59    65    1
    72    64    61    1
    73    67    65    1
    74    68    65    1
    75    63    61    1
    76    61    62    1
    77    65    66    1
