@<TRIPOS>MOLECULE
1,2,3
 76 79 0 0 0
SMALL
GASTEIGER

@<TRIPOS>ATOM
      1 P           2.8434    1.7649    2.1210 P.3     1  UNL1       -0.0112
      2 N           3.4353    4.7106    5.9931 N.pl3   1  UNL1       -0.2412
      3 N           1.8921    2.7276    4.7074 N.pl3   1  UNL1       -0.2411
      4 C           3.1423    4.7866    8.4247 C.3     1  UNL1       -0.0395
      5 H           4.1234    5.2437    8.5343 H       1  UNL1        0.0252
      6 H           2.9780    4.0856    9.2385 H       1  UNL1        0.0252
      7 H           2.4006    5.5829    8.4960 H       1  UNL1        0.0252
      8 C           3.0243    4.1031    7.0840 C.3     1  UNL1        0.0791
      9 C           2.3765    2.8541    7.0562 C.3     1  UNL1        0.0158
     10 H           2.2057    2.3749    8.0092 H       1  UNL1        0.0349
     11 C           1.7312    2.2954    5.9625 C.3     1  UNL1        0.0791
     12 C           0.7902    1.1485    6.2637 C.3     1  UNL1       -0.0395
     13 H          -0.0836    1.4952    6.8141 H       1  UNL1        0.0252
     14 H           1.3038    0.4168    6.8842 H       1  UNL1        0.0252
     15 H           0.4564    0.6606    5.3510 H       1  UNL1        0.0252
     16 C           0.8502    2.5941    3.8054 C.ar    1  UNL1        0.0566
     17 C          -0.4622    2.9474    4.1489 C.ar    1  UNL1       -0.0385
     18 H          -0.6592    3.3026    5.1503 H       1  UNL1        0.0637
     19 C          -1.4801    2.8742    3.2225 C.ar    1  UNL1       -0.0599
     20 H          -2.4840    3.1545    3.5077 H       1  UNL1        0.0618
     21 C          -1.2231    2.4432    1.9289 C.ar    1  UNL1       -0.0610
     22 H          -2.0237    2.3756    1.2081 H       1  UNL1        0.0618
     23 C           0.0666    2.1025    1.5645 C.ar    1  UNL1       -0.0517
     24 H           0.2680    1.7662    0.5574 H       1  UNL1        0.0625
     25 C           1.1051    2.1775    2.4846 C.ar    1  UNL1        0.0079
     26 C           2.8907   -0.0147    2.5534 C.ar    1  UNL1       -0.0146
     27 C           1.7740   -0.7398    2.9507 C.ar    1  UNL1       -0.0535
     28 H           0.8062   -0.2597    2.9943 H       1  UNL1        0.0624
     29 C           1.8975   -2.0771    3.2856 C.ar    1  UNL1       -0.0611
     30 H           1.0255   -2.6334    3.5981 H       1  UNL1        0.0618
     31 C           3.1304   -2.7032    3.2186 C.ar    1  UNL1       -0.0617
     32 H           3.2218   -3.7466    3.4817 H       1  UNL1        0.0618
     33 C           4.2474   -1.9881    2.8156 C.ar    1  UNL1       -0.0611
     34 H           5.2108   -2.4738    2.7619 H       1  UNL1        0.0618
     35 C           4.1296   -0.6503    2.4920 C.ar    1  UNL1       -0.0535
     36 H           4.9988   -0.0842    2.1839 H       1  UNL1        0.0624
     37 C           2.7795    1.6652    0.2945 C.ar    1  UNL1       -0.0146
     38 C           3.0458    0.5152   -0.4379 C.ar    1  UNL1       -0.0535
     39 H           3.2686   -0.4126    0.0684 H       1  UNL1        0.0624
     40 C           3.0189    0.5519   -1.8220 C.ar    1  UNL1       -0.0611
     41 H           3.2237   -0.3484   -2.3830 H       1  UNL1        0.0618
     42 C           2.7307    1.7310   -2.4865 C.ar    1  UNL1       -0.0617
     43 H           2.7109    1.7540   -3.5659 H       1  UNL1        0.0618
     44 C           2.4709    2.8841   -1.7617 C.ar    1  UNL1       -0.0611
     45 H           2.2479    3.8071   -2.2769 H       1  UNL1        0.0618
     46 C           2.5035    2.8531   -0.3820 C.ar    1  UNL1       -0.0535
     47 H           2.3115    3.7506    0.1910 H       1  UNL1        0.0624
     48 C           3.7186    6.0983    6.0584 C.ar    1  UNL1        0.0553
     49 C           2.6498    7.0007    5.9069 C.ar    1  UNL1       -0.0220
     50 C           2.9219    8.3586    5.8586 C.ar    1  UNL1       -0.0565
     51 H           2.1160    9.0618    5.7179 H       1  UNL1        0.0621
     52 C           4.2141    8.8322    5.9913 C.ar    1  UNL1       -0.0611
     53 H           4.4078    9.8940    5.9524 H       1  UNL1        0.0618
     54 C           5.2528    7.9433    6.1814 C.ar    1  UNL1       -0.0565
     55 H           6.2572    8.3207    6.2992 H       1  UNL1        0.0621
     56 C           5.0261    6.5744    6.2240 C.ar    1  UNL1       -0.0220
     57 C           1.2312    6.4929    5.7501 C.3     1  UNL1       -0.0197
     58 H           1.1677    5.4947    6.1955 H       1  UNL1        0.0344
     59 C           0.2027    7.3810    6.4526 C.3     1  UNL1       -0.0586
     60 H           0.0625    8.3199    5.9232 H       1  UNL1        0.0235
     61 H           0.5132    7.6016    7.4720 H       1  UNL1        0.0235
     62 H          -0.7590    6.8729    6.4880 H       1  UNL1        0.0235
     63 C           0.8964    6.3571    4.2617 C.3     1  UNL1       -0.0586
     64 H           1.0184    7.3129    3.7560 H       1  UNL1        0.0235
     65 H          -0.1304    6.0203    4.1316 H       1  UNL1        0.0235
     66 H           1.5620    5.6239    3.7988 H       1  UNL1        0.0235
     67 C           6.1863    5.6267    6.4305 C.3     1  UNL1       -0.0197
     68 H           5.7959    4.6041    6.5087 H       1  UNL1        0.0344
     69 C           7.1210    5.6771    5.2204 C.3     1  UNL1       -0.0586
     70 H           6.5697    5.4019    4.3195 H       1  UNL1        0.0235
     71 H           7.9478    4.9826    5.3549 H       1  UNL1        0.0235
     72 H           7.5298    6.6761    5.0883 H       1  UNL1        0.0235
     73 C           6.9578    5.9472    7.7136 C.3     1  UNL1       -0.0586
     74 H           7.4529    6.9125    7.6425 H       1  UNL1        0.0235
     75 H           7.7174    5.1882    7.8876 H       1  UNL1        0.0235
     76 H           6.2945    5.9697    8.5761 H       1  UNL1        0.0235
@<TRIPOS>BOND
     1    43    42    1
     2    42    40   ar
     3    42    44   ar
     4    41    40    1
     5    45    44    1
     6    40    38   ar
     7    44    46   ar
     8    38    39    1
     9    38    37   ar
    10    46    47    1
    11    46    37   ar
    12    37     1    1
    13    24    23    1
    14    22    21    1
    15    23    21   ar
    16    23    25   ar
    17    21    19   ar
    18     1    25    1
    19     1    26    1
    20    36    35    1
    21    25    16   ar
    22    35    26   ar
    23    35    33   ar
    24    26    27   ar
    25    34    33    1
    26    33    31   ar
    27    27    28    1
    28    27    29   ar
    29    31    29   ar
    30    31    32    1
    31    19    20    1
    32    19    17   ar
    33    29    30    1
    34    64    63    1
    35    66    63    1
    36    16    17   ar
    37    16     3    1
    38    65    63    1
    39    17    18    1
    40    63    57    1
    41    70    69    1
    42     3    11    1
    43    72    69    1
    44    69    71    1
    45    69    67    1
    46    15    12    1
    47    51    50    1
    48    57    49    1
    49    57    58    1
    50    57    59    1
    51    50    49   ar
    52    50    52   ar
    53    49    48   ar
    54    60    59    1
    55    53    52    1
    56    11    12    1
    57    11     9    1
    58    52    54   ar
    59     2    48    1
    60     2     8    1
    61    48    56   ar
    62    54    56   ar
    63    54    55    1
    64    56    67    1
    65    12    13    1
    66    12    14    1
    67    67    68    1
    68    67    73    1
    69    59    62    1
    70    59    61    1
    71     9     8    1
    72     9    10    1
    73     8     4    1
    74    74    73    1
    75    73    75    1
    76    73    76    1
    77     4     7    1
    78     4     5    1
    79     4     6    1
