@<TRIPOS>MOLECULE
1,4,5
 66 68 0 0 0
SMALL
GASTEIGER

@<TRIPOS>ATOM
      1 P           1.2227   -0.3989    5.6731 P.3     1  UNL1        0.0000
      2 SI          1.9565    2.4953    6.1090 Si      1  UNL1        0.0000
      3 SI          0.8399   -0.2223    2.6421 Si      1  UNL1        0.0000
      4 N           0.3625    2.5395    5.4291 N.pl3   1  UNL1        0.0000
      5 N          -0.7047   -0.1741    3.4078 N.pl3   1  UNL1        0.0000
      6 C           2.3198    0.6807    6.6458 C.3     1  UNL1        0.0000
      7 C           2.0884   -0.5980    4.0713 C.3     1  UNL1        0.0000
      8 C           3.3535    3.0511    4.9167 C.3     1  UNL1        0.0000
      9 C           2.0145    3.6032    7.6676 C.3     1  UNL1        0.0000
     10 C           1.3170    1.4801    1.8916 C.3     1  UNL1        0.0000
     11 C           0.9929   -1.6315    1.3615 C.3     1  UNL1        0.0000
     12 C          -0.1959    3.8167    5.2604 C.ar    1  UNL1        0.0000
     13 C           0.2796    4.7043    4.2979 C.ar    1  UNL1        0.0000
     14 C          -0.3190    5.9398    4.1245 C.ar    1  UNL1        0.0000
     15 C          -1.3906    6.3156    4.9146 C.ar    1  UNL1        0.0000
     16 C          -1.8577    5.4485    5.8904 C.ar    1  UNL1        0.0000
     17 C          -1.2622    4.2161    6.0718 C.ar    1  UNL1        0.0000
     18 C           1.2845   -2.0527    6.5111 C.3     1  UNL1        0.0000
     19 C           2.6724   -2.6660    6.6656 C.3     1  UNL1        0.0000
     20 C           2.5675   -4.0176    7.3696 C.3     1  UNL1        0.0000
     21 C           1.6456   -4.9563    6.5958 C.3     1  UNL1        0.0000
     22 C           0.2554   -4.3424    6.4510 C.3     1  UNL1        0.0000
     23 C           0.3430   -2.9893    5.7520 C.3     1  UNL1        0.0000
     24 C          -1.9035   -0.3846    2.7444 C.ar    1  UNL1        0.0000
     25 C          -2.9799   -0.9302    3.4597 C.ar    1  UNL1        0.0000
     26 C          -4.2145   -1.0948    2.8644 C.ar    1  UNL1        0.0000
     27 C          -4.4068   -0.7393    1.5389 C.ar    1  UNL1        0.0000
     28 C          -3.3482   -0.2166    0.8165 C.ar    1  UNL1        0.0000
     29 C          -2.1109   -0.0435    1.4064 C.ar    1  UNL1        0.0000
     30 H           2.0562    0.5519    7.6981 H       1  UNL1        0.0000
     31 H           3.3672    0.4074    6.5124 H       1  UNL1        0.0000
     32 H           2.4876   -1.6082    3.9874 H       1  UNL1        0.0000
     33 H           2.9286    0.0953    4.0447 H       1  UNL1        0.0000
     34 H           3.2780    2.5961    3.9331 H       1  UNL1        0.0000
     35 H           4.3267    2.7972    5.3267 H       1  UNL1        0.0000
     36 H           3.3302    4.1280    4.7859 H       1  UNL1        0.0000
     37 H           1.2772    3.3013    8.4067 H       1  UNL1        0.0000
     38 H           1.8003    4.6320    7.3972 H       1  UNL1        0.0000
     39 H           2.9910    3.5810    8.1399 H       1  UNL1        0.0000
     40 H           2.3901    1.6023    1.7730 H       1  UNL1        0.0000
     41 H           0.9434    2.2747    2.5388 H       1  UNL1        0.0000
     42 H           0.8686    1.6204    0.9128 H       1  UNL1        0.0000
     43 H           0.7013   -2.5898    1.7797 H       1  UNL1        0.0000
     44 H           2.0133   -1.7182    1.0037 H       1  UNL1        0.0000
     45 H           0.3570   -1.4471    0.5044 H       1  UNL1        0.0000
     46 H           1.1093    4.4086    3.6721 H       1  UNL1        0.0000
     47 H           0.0535    6.6099    3.3630 H       1  UNL1        0.0000
     48 H          -1.8592    7.2777    4.7731 H       1  UNL1        0.0000
     49 H          -2.6906    5.7377    6.5142 H       1  UNL1        0.0000
     50 H          -1.6205    3.5303    6.8364 H       1  UNL1        0.0000
     51 H           0.8620   -1.8710    7.5125 H       1  UNL1        0.0000
     52 H           3.3176   -1.9978    7.2416 H       1  UNL1        0.0000
     53 H           3.1313   -2.8118    5.6844 H       1  UNL1        0.0000
     54 H           2.1710   -3.8713    8.3772 H       1  UNL1        0.0000
     55 H           3.5609   -4.4622    7.4625 H       1  UNL1        0.0000
     56 H           1.5763   -5.9156    7.1124 H       1  UNL1        0.0000
     57 H           2.0661   -5.1410    5.6040 H       1  UNL1        0.0000
     58 H          -0.1868   -4.2094    7.4412 H       1  UNL1        0.0000
     59 H          -0.3923   -5.0129    5.8824 H       1  UNL1        0.0000
     60 H           0.7101   -3.1301    4.7300 H       1  UNL1        0.0000
     61 H          -0.6544   -2.5346    5.6890 H       1  UNL1        0.0000
     62 H          -2.8278   -1.2208    4.5007 H       1  UNL1        0.0000
     63 H          -5.0340   -1.5052    3.4365 H       1  UNL1        0.0000
     64 H          -5.3737   -0.8646    1.0761 H       1  UNL1        0.0000
     65 H          -3.4892    0.0711   -0.2155 H       1  UNL1        0.0000
     66 H          -1.2986    0.3960    0.8471 H       1  UNL1        0.0000
@<TRIPOS>BOND
     1    65    28    1
     2    45    11    1
     3    28    29   ar
     4    28    27   ar
     5    66    29    1
     6    42    10    1
     7    44    11    1
     8    64    27    1
     9    11    43    1
    10    11     3    1
    11    29    24   ar
    12    27    26   ar
    13    40    10    1
    14    10    41    1
    15    10     3    1
    16     3     5    1
    17     3     7    1
    18    24     5    1
    19    24    25   ar
    20    26    63    1
    21    26    25   ar
    22    47    14    1
    23    25    62    1
    24    46    13    1
    25    34     8    1
    26    32     7    1
    27    33     7    1
    28     7     1    1
    29    14    13   ar
    30    14    15   ar
    31    13    12   ar
    32    60    23    1
    33    48    15    1
    34    36     8    1
    35    15    16   ar
    36     8    35    1
    37     8     2    1
    38    12     4    1
    39    12    17   ar
    40     4     2    1
    41    57    21    1
    42     1    18    1
    43     1     6    1
    44    53    19    1
    45    61    23    1
    46    23    22    1
    47    23    18    1
    48    59    22    1
    49    16    17   ar
    50    16    49    1
    51    17    50    1
    52     2     6    1
    53     2     9    1
    54    22    21    1
    55    22    58    1
    56    18    19    1
    57    18    51    1
    58    31     6    1
    59    21    56    1
    60    21    20    1
    61     6    30    1
    62    19    52    1
    63    19    20    1
    64    20    55    1
    65    20    54    1
    66    38     9    1
    67     9    39    1
    68     9    37    1
