@<TRIPOS>MOLECULE
1,4,5
 60 62 0 0 0
SMALL
GASTEIGER

@<TRIPOS>ATOM
      1 P          10.8419    5.5234    9.4753 P.3     1  UNL1        0.0000
      2 SI         11.3420    4.7412    6.5586 Si      1  UNL1        0.0000
      3 SI          7.8861    5.3646   10.2201 Si      1  UNL1        0.0000
      4 N          10.9602    3.1518    7.0843 N.pl3   1  UNL1        0.0000
      5 N           8.2798    4.0377    9.1840 N.pl3   1  UNL1        0.0000
      6 C          10.4372    5.9457    7.7443 C.3     1  UNL1        0.0000
      7 C           9.5003    6.3952   10.3801 C.3     1  UNL1        0.0000
      8 C          10.7654    5.2027    4.7894 C.3     1  UNL1        0.0000
      9 C          13.2374    5.0285    6.6263 C.3     1  UNL1        0.0000
     10 C           6.5476    6.4649    9.4114 C.3     1  UNL1        0.0000
     11 C           7.3436    4.9053   12.0011 C.3     1  UNL1        0.0000
     12 C          12.2692    6.5903    9.9076 C.ar    1  UNL1        0.0000
     13 C          12.9253    7.4614    9.0486 C.ar    1  UNL1        0.0000
     14 C          14.0061    8.2013    9.4980 C.ar    1  UNL1        0.0000
     15 C          14.4472    8.0761   10.8038 C.ar    1  UNL1        0.0000
     16 C          13.8079    7.1977   11.6646 C.ar    1  UNL1        0.0000
     17 C          12.7332    6.4564   11.2150 C.ar    1  UNL1        0.0000
     18 C          11.3715    2.1128    6.2487 C.ar    1  UNL1        0.0000
     19 C          10.7300    1.8616    5.0334 C.ar    1  UNL1        0.0000
     20 C          11.1212    0.8092    4.2289 C.ar    1  UNL1        0.0000
     21 C          12.1671   -0.0139    4.6098 C.ar    1  UNL1        0.0000
     22 C          12.8159    0.2268    5.8099 C.ar    1  UNL1        0.0000
     23 C          12.4271    1.2757    6.6198 C.ar    1  UNL1        0.0000
     24 C           7.2628    3.4614    8.4305 C.ar    1  UNL1        0.0000
     25 C           7.4501    3.2359    7.0599 C.ar    1  UNL1        0.0000
     26 C           6.4549    2.6583    6.2957 C.ar    1  UNL1        0.0000
     27 C           5.2471    2.2962    6.8693 C.ar    1  UNL1        0.0000
     28 C           5.0438    2.5245    8.2202 C.ar    1  UNL1        0.0000
     29 C           6.0342    3.0995    8.9917 C.ar    1  UNL1        0.0000
     30 H           9.3613    5.7973    7.6457 H       1  UNL1        0.0000
     31 H          10.6496    6.9922    7.5320 H       1  UNL1        0.0000
     32 H           9.7908    6.4815   11.4258 H       1  UNL1        0.0000
     33 H           9.3934    7.4033    9.9779 H       1  UNL1        0.0000
     34 H          11.0323    6.2268    4.5481 H       1  UNL1        0.0000
     35 H          11.2469    4.5599    4.0610 H       1  UNL1        0.0000
     36 H           9.6917    5.1063    4.6590 H       1  UNL1        0.0000
     37 H          13.6085    5.0338    7.6476 H       1  UNL1        0.0000
     38 H          13.7481    4.2316    6.0941 H       1  UNL1        0.0000
     39 H          13.5267    5.9664    6.1634 H       1  UNL1        0.0000
     40 H           6.2707    7.2850   10.0653 H       1  UNL1        0.0000
     41 H           6.8839    6.8893    8.4700 H       1  UNL1        0.0000
     42 H           5.6524    5.8880    9.2058 H       1  UNL1        0.0000
     43 H           7.3829    5.7756   12.6491 H       1  UNL1        0.0000
     44 H           6.3250    4.5321   12.0248 H       1  UNL1        0.0000
     45 H           7.9828    4.1411   12.4326 H       1  UNL1        0.0000
     46 H          12.6033    7.5652    8.0243 H       1  UNL1        0.0000
     47 H          14.5083    8.8783    8.8219 H       1  UNL1        0.0000
     48 H          15.2909    8.6551   11.1489 H       1  UNL1        0.0000
     49 H          14.1547    7.0887   12.6819 H       1  UNL1        0.0000
     50 H          12.2385    5.7561   11.8764 H       1  UNL1        0.0000
     51 H           9.9076    2.4945    4.7359 H       1  UNL1        0.0000
     52 H          10.6050    0.6296    3.2962 H       1  UNL1        0.0000
     53 H          12.4730   -0.8345    3.9782 H       1  UNL1        0.0000
     54 H          13.6358   -0.4081    6.1149 H       1  UNL1        0.0000
     55 H          12.9365    1.4655    7.5527 H       1  UNL1        0.0000
     56 H           8.3797    3.5446    6.5974 H       1  UNL1        0.0000
     57 H           6.6206    2.4934    5.2405 H       1  UNL1        0.0000
     58 H           4.4711    1.8448    6.2700 H       1  UNL1        0.0000
     59 H           4.1044    2.2500    8.6785 H       1  UNL1        0.0000
     60 H           5.8762    3.2679   10.0460 H       1  UNL1        0.0000
@<TRIPOS>BOND
     1    52    20    1
     2    53    21    1
     3    35     8    1
     4    20    21   ar
     5    20    19   ar
     6    34     8    1
     7    21    22   ar
     8    36     8    1
     9    51    19    1
    10     8     2    1
    11    19    18   ar
    12    57    26    1
    13    22    54    1
    14    22    23   ar
    15    38     9    1
    16    39     9    1
    17    18    23   ar
    18    18     4    1
    19    58    27    1
    20    26    27   ar
    21    26    25   ar
    22     2     9    1
    23     2     4    1
    24     2     6    1
    25    56    25    1
    26    23    55    1
    27     9    37    1
    28    27    28   ar
    29    25    24   ar
    30    31     6    1
    31    30     6    1
    32     6     1    1
    33    46    13    1
    34    28    59    1
    35    28    29   ar
    36    24    29   ar
    37    24     5    1
    38    41    10    1
    39    47    14    1
    40    29    60    1
    41    13    14   ar
    42    13    12   ar
    43     5     3    1
    44    42    10    1
    45    10    40    1
    46    10     3    1
    47     1    12    1
    48     1     7    1
    49    14    15   ar
    50    12    17   ar
    51    33     7    1
    52     3     7    1
    53     3    11    1
    54     7    32    1
    55    15    48    1
    56    15    16   ar
    57    17    16   ar
    58    17    50    1
    59    16    49    1
    60    11    44    1
    61    11    45    1
    62    11    43    1
