@<TRIPOS>MOLECULE
2,4,5
 78 77 0 0 0
SMALL
GASTEIGER

@<TRIPOS>ATOM
      1 SI          6.9886    6.5617    9.2768 Si      1  UNL1        0.0000
      2 P          11.0840    5.9051    7.7691 P.3     1  UNL1        0.0000
      3 P           7.0088    8.4434    4.4247 P.3     1  UNL1        0.0000
      4 N           7.8718    5.3946   10.1115 N.3     1  UNL1        0.0000
      5 N           8.2812    6.8668    8.0348 N.3     1  UNL1        0.0000
      6 C           7.4499    4.6078   11.2510 C.3     1  UNL1        0.0000
      7 C           8.6565    4.3928   12.1830 C.3     1  UNL1        0.0000
      8 H           9.4500    3.8640   11.6548 H       1  UNL1        0.0000
      9 H           8.3668    3.8028   13.0500 H       1  UNL1        0.0000
     10 H           9.0347    5.3543   12.5287 H       1  UNL1        0.0000
     11 C           6.9480    3.2410   10.7550 C.3     1  UNL1        0.0000
     12 H           7.7344    2.7677   10.1576 H       1  UNL1        0.0000
     13 H           6.0679    3.3821   10.1274 H       1  UNL1        0.0000
     14 H           6.6908    2.5913   11.5898 H       1  UNL1        0.0000
     15 C           6.3351    5.2952   12.0514 C.3     1  UNL1        0.0000
     16 H           6.6631    6.2789   12.3773 H       1  UNL1        0.0000
     17 H           6.0765    4.7031   12.9262 H       1  UNL1        0.0000
     18 H           5.4480    5.4163   11.4353 H       1  UNL1        0.0000
     19 C           5.3869    5.9740    8.3842 C.3     1  UNL1        0.0000
     20 H           4.6488    5.6818    9.1259 H       1  UNL1        0.0000
     21 H           5.6089    5.0932    7.7843 H       1  UNL1        0.0000
     22 H           4.9169    6.7188    7.7500 H       1  UNL1        0.0000
     23 C           6.5536    8.2363   10.1185 C.3     1  UNL1        0.0000
     24 H           5.6483    8.1395   10.7076 H       1  UNL1        0.0000
     25 H           6.3884    9.0332    9.3990 H       1  UNL1        0.0000
     26 H           7.3416    8.5604   10.7916 H       1  UNL1        0.0000
     27 C           9.2741    7.8400    8.4443 C.3     1  UNL1        0.0000
     28 H           9.4518    7.6852    9.5137 H       1  UNL1        0.0000
     29 H           8.9064    8.8742    8.3323 H       1  UNL1        0.0000
     30 C          10.6117    7.7026    7.6957 C.3     1  UNL1        0.0000
     31 H          11.3641    8.3430    8.1636 H       1  UNL1        0.0000
     32 H          10.5073    8.0175    6.6552 H       1  UNL1        0.0000
     33 C          12.0204    5.5978    6.1845 C.3     1  UNL1        0.0000
     34 H          12.7879    6.3656    6.0285 H       1  UNL1        0.0000
     35 C          12.6514    4.2111    6.3071 C.3     1  UNL1        0.0000
     36 H          13.0318    3.8768    5.3431 H       1  UNL1        0.0000
     37 H          11.8971    3.4995    6.6505 H       1  UNL1        0.0000
     38 H          13.4764    4.2055    7.0159 H       1  UNL1        0.0000
     39 C          11.0194    5.6131    5.0310 C.3     1  UNL1        0.0000
     40 H          11.4702    5.1971    4.1314 H       1  UNL1        0.0000
     41 H          10.6875    6.6234    4.7958 H       1  UNL1        0.0000
     42 H          10.1500    5.0074    5.3046 H       1  UNL1        0.0000
     43 C          12.4175    5.8806    9.0806 C.3     1  UNL1        0.0000
     44 H          12.6979    4.8216    9.1575 H       1  UNL1        0.0000
     45 C          11.7795    6.2849   10.4103 C.3     1  UNL1        0.0000
     46 H          12.4377    6.0263   11.2387 H       1  UNL1        0.0000
     47 H          10.8344    5.7508   10.5517 H       1  UNL1        0.0000
     48 H          11.5971    7.3591   10.4501 H       1  UNL1        0.0000
     49 C          13.6601    6.7151    8.7839 C.3     1  UNL1        0.0000
     50 H          14.3510    6.6448    9.6228 H       1  UNL1        0.0000
     51 H          13.4143    7.7664    8.6443 H       1  UNL1        0.0000
     52 H          14.1771    6.3623    7.8953 H       1  UNL1        0.0000
     53 C           7.8681    6.9934    6.6486 C.3     1  UNL1        0.0000
     54 H           7.2253    6.1379    6.4319 H       1  UNL1        0.0000
     55 H           8.7427    6.8949    5.9939 H       1  UNL1        0.0000
     56 C           7.1542    8.3015    6.2865 C.3     1  UNL1        0.0000
     57 H           7.7599    9.1458    6.6216 H       1  UNL1        0.0000
     58 H           6.1775    8.3664    6.7687 H       1  UNL1        0.0000
     59 C           5.1610    8.1355    4.2325 C.3     1  UNL1        0.0000
     60 H           4.6162    8.6892    5.0066 H       1  UNL1        0.0000
     61 C           4.6812    8.5778    2.8537 C.3     1  UNL1        0.0000
     62 H           3.6449    8.2770    2.7045 H       1  UNL1        0.0000
     63 H           5.2857    8.1118    2.0774 H       1  UNL1        0.0000
     64 H           4.7385    9.6572    2.7345 H       1  UNL1        0.0000
     65 C           4.9051    6.6417    4.4148 C.3     1  UNL1        0.0000
     66 H           3.8437    6.4228    4.3036 H       1  UNL1        0.0000
     67 H           5.2222    6.3043    5.3979 H       1  UNL1        0.0000
     68 H           5.4530    6.0718    3.6667 H       1  UNL1        0.0000
     69 C           7.0852   10.3198    4.2279 C.3     1  UNL1        0.0000
     70 H           6.7984   10.4965    3.1840 H       1  UNL1        0.0000
     71 C           6.1724   11.1401    5.1319 C.3     1  UNL1        0.0000
     72 H           6.3018   12.2001    4.9146 H       1  UNL1        0.0000
     73 H           6.4098   10.9831    6.1818 H       1  UNL1        0.0000
     74 H           5.1262   10.8918    4.9725 H       1  UNL1        0.0000
     75 C           8.5428   10.7544    4.3777 C.3     1  UNL1        0.0000
     76 H           8.6581   11.8030    4.1076 H       1  UNL1        0.0000
     77 H           9.1837   10.1593    3.7290 H       1  UNL1        0.0000
     78 H           8.8881   10.6333    5.4032 H       1  UNL1        0.0000
@<TRIPOS>BOND
     1    63    61    1
     2    62    61    1
     3    64    61    1
     4    61    59    1
     5    70    69    1
     6    68    65    1
     7    77    75    1
     8    76    75    1
     9    40    39    1
    10    69    75    1
    11    69     3    1
    12    69    71    1
    13    59    65    1
    14    59     3    1
    15    59    60    1
    16    66    65    1
    17    75    78    1
    18    65    67    1
    19     3    56    1
    20    41    39    1
    21    72    71    1
    22    74    71    1
    23    39    42    1
    24    39    33    1
    25    71    73    1
    26    36    35    1
    27    55    53    1
    28    34    33    1
    29    33    35    1
    30    33     2    1
    31    56    57    1
    32    56    53    1
    33    56    58    1
    34    35    37    1
    35    35    38    1
    36    54    53    1
    37    53     5    1
    38    32    30    1
    39    30     2    1
    40    30    31    1
    41    30    27    1
    42    22    19    1
    43     2    43    1
    44    21    19    1
    45    52    49    1
    46     5    27    1
    47     5     1    1
    48    29    27    1
    49    19    20    1
    50    19     1    1
    51    27    28    1
    52    51    49    1
    53    49    43    1
    54    49    50    1
    55    43    44    1
    56    43    45    1
    57     1     4    1
    58     1    23    1
    59    25    23    1
    60     4     6    1
    61    23    24    1
    62    23    26    1
    63    13    11    1
    64    12    11    1
    65    45    48    1
    66    45    47    1
    67    45    46    1
    68    11     6    1
    69    11    14    1
    70     6    15    1
    71     6     7    1
    72    18    15    1
    73     8     7    1
    74    15    16    1
    75    15    17    1
    76     7    10    1
    77     7     9    1
