@<TRIPOS>MOLECULE
1,4,5
 66 68 0 0 0
SMALL
GASTEIGER

@<TRIPOS>ATOM
      1 P           9.0754    7.5712    2.0746 P.3     1  UNL1        0.0000
      2 SI          6.3937    6.0992    5.2090 Si      1  UNL1        0.0000
      3 SI          9.6676   11.1927    3.6335 Si      1  UNL1        0.0000
      4 N           7.9552    6.3356    4.5447 N.pl3   1  UNL1        0.0000
      5 N           8.6773    9.8179    3.8065 N.pl3   1  UNL1        0.0000
      6 C           8.2818    5.9034    1.7935 C.3     1  UNL1        0.0000
      7 H           7.2171    6.0251    2.0179 H       1  UNL1        0.0000
      8 H           8.4134    5.5475    0.7697 H       1  UNL1        0.0000
      9 C           7.7539    8.6741    1.3663 C.3     1  UNL1        0.0000
     10 H           8.2747    9.5436    0.9493 H       1  UNL1        0.0000
     11 H           7.2239    8.1609    0.5575 H       1  UNL1        0.0000
     12 C           8.8971    4.9595    2.7806 C.ar    1  UNL1        0.0000
     13 C           8.7196    5.2429    4.1535 C.ar    1  UNL1        0.0000
     14 C           9.3075    4.3748    5.0814 C.ar    1  UNL1        0.0000
     15 H           9.1697    4.5760    6.1365 H       1  UNL1        0.0000
     16 C          10.0365    3.2736    4.6711 C.ar    1  UNL1        0.0000
     17 H          10.4751    2.6158    5.4083 H       1  UNL1        0.0000
     18 C          10.2043    3.0083    3.3224 C.ar    1  UNL1        0.0000
     19 H          10.7706    2.1476    3.0007 H       1  UNL1        0.0000
     20 C           9.6384    3.8593    2.3865 C.ar    1  UNL1        0.0000
     21 H           9.7681    3.6578    1.3314 H       1  UNL1        0.0000
     22 C           5.9305    7.6781    6.1755 C.3     1  UNL1        0.0000
     23 H           5.6963    7.4531    7.2110 H       1  UNL1        0.0000
     24 H           5.0578    8.1547    5.7438 H       1  UNL1        0.0000
     25 H           6.7595    8.3903    6.1540 H       1  UNL1        0.0000
     26 C           5.0676    5.8008    3.8445 C.3     1  UNL1        0.0000
     27 H           5.0071    6.6440    3.1623 H       1  UNL1        0.0000
     28 H           4.0842    5.6697    4.2844 H       1  UNL1        0.0000
     29 H           5.2840    4.9084    3.2639 H       1  UNL1        0.0000
     30 C           6.2370    4.5795    6.3802 C.3     1  UNL1        0.0000
     31 H           6.6086    3.6814    5.8956 H       1  UNL1        0.0000
     32 H           5.2015    4.3998    6.6512 H       1  UNL1        0.0000
     33 H           6.7970    4.7122    7.3015 H       1  UNL1        0.0000
     34 C           6.7989    9.1529    2.4187 C.ar    1  UNL1        0.0000
     35 C           7.3135    9.7830    3.5756 C.ar    1  UNL1        0.0000
     36 C           6.4022   10.3939    4.4481 C.ar    1  UNL1        0.0000
     37 H           6.7929   10.9264    5.3053 H       1  UNL1        0.0000
     38 C           5.0409   10.3420    4.2182 C.ar    1  UNL1        0.0000
     39 H           4.3618   10.8289    4.9035 H       1  UNL1        0.0000
     40 C           4.5448    9.6731    3.1119 C.ar    1  UNL1        0.0000
     41 H           3.4814    9.6218    2.9335 H       1  UNL1        0.0000
     42 C           5.4295    9.0925    2.2175 C.ar    1  UNL1        0.0000
     43 H           5.0461    8.6119    1.3263 H       1  UNL1        0.0000
     44 C           9.0137   12.8212    4.4241 C.3     1  UNL1        0.0000
     45 H           8.0277   13.0622    4.0380 H       1  UNL1        0.0000
     46 H           9.6667   13.6566    4.1933 H       1  UNL1        0.0000
     47 H           8.9355   12.7592    5.5057 H       1  UNL1        0.0000
     48 C           9.9976   11.6651    1.7934 C.3     1  UNL1        0.0000
     49 H          10.4178   10.8360    1.2300 H       1  UNL1        0.0000
     50 H          10.6933   12.4950    1.7205 H       1  UNL1        0.0000
     51 H           9.0799   11.9718    1.2991 H       1  UNL1        0.0000
     52 C          11.3179   10.6659    4.4410 C.3     1  UNL1        0.0000
     53 H          11.3467   10.9168    5.4982 H       1  UNL1        0.0000
     54 H          12.1645   11.1578    3.9723 H       1  UNL1        0.0000
     55 H          11.4444    9.5818    4.3456 H       1  UNL1        0.0000
     56 C          10.2589    7.6999    0.6719 C.ar    1  UNL1        0.0000
     57 C           9.9817    7.3247   -0.6375 C.ar    1  UNL1        0.0000
     58 H           9.0239    6.8926   -0.8911 H       1  UNL1        0.0000
     59 C          10.9279    7.5084   -1.6304 C.ar    1  UNL1        0.0000
     60 H          10.7073    7.2112   -2.6454 H       1  UNL1        0.0000
     61 C          12.1540    8.0779   -1.3285 C.ar    1  UNL1        0.0000
     62 H          12.8888    8.2208   -2.1069 H       1  UNL1        0.0000
     63 C          12.4332    8.4682   -0.0288 C.ar    1  UNL1        0.0000
     64 H          13.3862    8.9189    0.2066 H       1  UNL1        0.0000
     65 C          11.4907    8.2792    0.9661 C.ar    1  UNL1        0.0000
     66 H          11.6940    8.5782    1.9883 H       1  UNL1        0.0000
@<TRIPOS>BOND
     1    60    59    1
     2    62    61    1
     3    59    61   ar
     4    59    57   ar
     5    61    63   ar
     6    58    57    1
     7    57    56   ar
     8    63    64    1
     9    63    65   ar
    10    11     9    1
    11    56    65   ar
    12    56     1    1
    13     8     6    1
    14    10     9    1
    15    65    66    1
    16    49    48    1
    17    51    48    1
    18    43    42    1
    19    21    20    1
    20     9     1    1
    21     9    34    1
    22    50    48    1
    23    48     3    1
    24     6     7    1
    25     6     1    1
    26     6    12    1
    27    42    34   ar
    28    42    40   ar
    29    20    12   ar
    30    20    18   ar
    31    34    35   ar
    32    12    13   ar
    33    41    40    1
    34    19    18    1
    35    40    38   ar
    36    27    26    1
    37    29    26    1
    38    18    16   ar
    39    35     5    1
    40    35    36   ar
    41     3     5    1
    42     3    44    1
    43     3    52    1
    44    26    28    1
    45    26     2    1
    46    54    52    1
    47    45    44    1
    48    13     4    1
    49    13    14   ar
    50    46    44    1
    51    38    36   ar
    52    38    39    1
    53    55    52    1
    54    44    47    1
    55    52    53    1
    56    36    37    1
    57     4     2    1
    58    16    14   ar
    59    16    17    1
    60    14    15    1
    61     2    22    1
    62     2    30    1
    63    24    22    1
    64    31    30    1
    65    25    22    1
    66    22    23    1
    67    30    32    1
    68    30    33    1
