@<TRIPOS>MOLECULE
1,2,3
 56 60 0 0 0
SMALL
GASTEIGER

@<TRIPOS>ATOM
      1 P           4.2440   16.1236    6.4634 P.3     1  UNL1       -0.0112
      2 N           7.8586   14.7990    5.5014 N.pl3   1  UNL1       -0.2427
      3 N           5.4843   13.8966    5.6848 N.pl3   1  UNL1       -0.2298
      4 C           9.1433   15.1727    5.5906 C.3     1  UNL1        0.0844
      5 H           9.3516   16.0236    6.2213 H       1  UNL1        0.0584
      6 C          10.1714   14.5577    4.9220 C.2     1  UNL1       -0.0600
      7 H          11.1802   14.9205    5.0353 H       1  UNL1        0.0592
      8 C           9.8821   13.4894    4.0609 C.2     1  UNL1       -0.0623
      9 H          10.6620   13.0260    3.4760 H       1  UNL1        0.0616
     10 C           8.5891   13.0497    3.9901 C.2     1  UNL1       -0.0408
     11 H           8.3150   12.2255    3.3505 H       1  UNL1        0.0634
     12 C           7.5874   13.6754    4.7584 C.2     1  UNL1        0.0584
     13 C           6.2472   13.2134    4.8398 C.3     1  UNL1        0.1496
     14 C           5.7348   12.1517    3.9594 C.ar    1  UNL1       -0.0139
     15 C           6.2955   10.8760    3.9394 C.ar    1  UNL1       -0.0560
     16 H           7.1061   10.6392    4.6147 H       1  UNL1        0.0621
     17 C           5.7960    9.9067    3.0893 C.ar    1  UNL1       -0.0614
     18 H           6.2349    8.9192    3.0853 H       1  UNL1        0.0618
     19 C           4.7333   10.1961    2.2494 C.ar    1  UNL1       -0.0617
     20 H           4.3460    9.4373    1.5858 H       1  UNL1        0.0618
     21 C           4.1658   11.4598    2.2681 C.ar    1  UNL1       -0.0614
     22 H           3.3353   11.6900    1.6167 H       1  UNL1        0.0618
     23 C           4.6592   12.4314    3.1169 C.ar    1  UNL1       -0.0560
     24 H           4.2168   13.4183    3.1292 H       1  UNL1        0.0621
     25 C           4.2177   13.5010    6.0607 C.ar    1  UNL1        0.0575
     26 C           3.7380   12.1890    6.0876 C.ar    1  UNL1       -0.0384
     27 H           4.3683   11.3674    5.7870 H       1  UNL1        0.0637
     28 C           2.4581   11.9357    6.5404 C.ar    1  UNL1       -0.0599
     29 H           2.1023   10.9157    6.5647 H       1  UNL1        0.0618
     30 C           1.6260   12.9635    6.9574 C.ar    1  UNL1       -0.0610
     31 H           0.6217   12.7474    7.2901 H       1  UNL1        0.0618
     32 C           2.0936   14.2673    6.9630 C.ar    1  UNL1       -0.0517
     33 H           1.4607   15.0753    7.3020 H       1  UNL1        0.0625
     34 C           3.3877   14.5241    6.5506 C.ar    1  UNL1        0.0079
     35 C           3.5134   16.6818    4.8845 C.ar    1  UNL1       -0.0146
     36 C           4.2341   16.4352    3.7215 C.ar    1  UNL1       -0.0535
     37 H           5.2256   16.0046    3.7918 H       1  UNL1        0.0624
     38 C           3.7010   16.7521    2.4863 C.ar    1  UNL1       -0.0611
     39 H           4.2729   16.5647    1.5893 H       1  UNL1        0.0618
     40 C           2.4412   17.3206    2.4050 C.ar    1  UNL1       -0.0617
     41 H           2.0257   17.5807    1.4424 H       1  UNL1        0.0618
     42 C           1.7107   17.5523    3.5595 C.ar    1  UNL1       -0.0611
     43 H           0.7232   17.9867    3.4951 H       1  UNL1        0.0618
     44 C           2.2365   17.2259    4.7960 C.ar    1  UNL1       -0.0535
     45 H           1.6579   17.4000    5.6926 H       1  UNL1        0.0624
     46 C           3.4159   17.1526    7.7058 C.ar    1  UNL1       -0.0146
     47 C           3.2740   18.5238    7.5102 C.ar    1  UNL1       -0.0535
     48 H           3.5746   18.9591    6.5675 H       1  UNL1        0.0624
     49 C           2.7447   19.3173    8.5109 C.ar    1  UNL1       -0.0611
     50 H           2.6297   20.3798    8.3509 H       1  UNL1        0.0618
     51 C           2.3643   18.7538    9.7185 C.ar    1  UNL1       -0.0617
     52 H           1.9477   19.3753   10.4976 H       1  UNL1        0.0618
     53 C           2.5269   17.3942    9.9293 C.ar    1  UNL1       -0.0611
     54 H           2.2447   16.9555   10.8756 H       1  UNL1        0.0618
     55 C           3.0614   16.5997    8.9330 C.ar    1  UNL1       -0.0535
     56 H           3.2071   15.5409    9.0968 H       1  UNL1        0.0624
@<TRIPOS>BOND
     1    41    40    1
     2    20    19    1
     3    39    38    1
     4    22    21    1
     5    19    21   ar
     6    19    17   ar
     7    21    23   ar
     8    40    38   ar
     9    40    42   ar
    10    38    36   ar
    11    18    17    1
    12    17    15   ar
    13    23    24    1
    14    23    14   ar
    15    11    10    1
    16     9     8    1
    17    43    42    1
    18    42    44   ar
    19    36    37    1
    20    36    35   ar
    21    15    14   ar
    22    15    16    1
    23    14    13    1
    24    10     8    1
    25    10    12    2
    26     8     6    2
    27    12    13    1
    28    12     2    1
    29    44    35   ar
    30    44    45    1
    31    13     3    1
    32    35     1    1
    33     6     7    1
    34     6     4    1
    35     2     4    1
    36     4     5    1
    37     3    25    1
    38    27    26    1
    39    25    26   ar
    40    25    34   ar
    41    26    28   ar
    42     1    34    1
    43     1    46    1
    44    28    29    1
    45    28    30   ar
    46    34    32   ar
    47    48    47    1
    48    30    32   ar
    49    30    31    1
    50    32    33    1
    51    47    46   ar
    52    47    49   ar
    53    46    55   ar
    54    50    49    1
    55    49    51   ar
    56    55    56    1
    57    55    53   ar
    58    51    53   ar
    59    51    52    1
    60    53    54    1
