@<TRIPOS>MOLECULE
1,5,6
 83 85 0 0 0
SMALL
GASTEIGER

@<TRIPOS>ATOM
      1 P           2.1050    1.4019   11.4254 P.3     1  UNL1        0.0000
      2 SI         -0.1129    4.5683    9.0229 Si      1  UNL1        0.0000
      3 SI         -1.7898    2.1940   13.6273 Si      1  UNL1        0.0000
      4 SI          4.2519    1.5677    6.9268 Si      1  UNL1        0.0000
      5 N           0.0662    3.2490   10.1428 N.pl3   1  UNL1        0.0000
      6 N          -0.0983    2.4326   13.3013 N.pl3   1  UNL1        0.0000
      7 N           4.3573    1.0686    8.5994 N.pl3   1  UNL1        0.0000
      8 H           4.2266    1.8016    9.2800 H       1  UNL1        0.0000
      9 C           1.4547    0.7736    9.8114 C.3     1  UNL1        0.0000
     10 H           1.8430    1.4255    9.0217 H       1  UNL1        0.0000
     11 H           1.7969   -0.2504    9.6350 H       1  UNL1        0.0000
     12 C           1.3535    0.1373   12.5532 C.3     1  UNL1        0.0000
     13 H           0.2973    0.0463   12.2805 H       1  UNL1        0.0000
     14 H           1.8511   -0.8304   12.4466 H       1  UNL1        0.0000
     15 C           3.8882    0.7841   11.4409 C.3     1  UNL1        0.0000
     16 H           4.5405    1.6318   11.2069 H       1  UNL1        0.0000
     17 H           4.0763    0.5068   12.4821 H       1  UNL1        0.0000
     18 C          -0.0401    0.8451    9.8041 C.ar    1  UNL1        0.0000
     19 C          -0.6791    2.0984    9.9130 C.ar    1  UNL1        0.0000
     20 C          -2.0621    2.1348    9.6927 C.ar    1  UNL1        0.0000
     21 H          -2.5601    3.0913    9.6785 H       1  UNL1        0.0000
     22 C          -2.7937    0.9834    9.4803 C.ar    1  UNL1        0.0000
     23 H          -3.8605    1.0501    9.3257 H       1  UNL1        0.0000
     24 C          -2.1649   -0.2500    9.4582 C.ar    1  UNL1        0.0000
     25 H          -2.7323   -1.1548    9.3036 H       1  UNL1        0.0000
     26 C          -0.7891   -0.3039    9.6025 C.ar    1  UNL1        0.0000
     27 H          -0.2797   -1.2557    9.5327 H       1  UNL1        0.0000
     28 C          -1.6762    5.6777    9.1773 C.3     1  UNL1        0.0000
     29 H          -2.5589    5.2172    8.7417 H       1  UNL1        0.0000
     30 H          -1.5168    6.6183    8.6581 H       1  UNL1        0.0000
     31 H          -1.8948    5.9162   10.2154 H       1  UNL1        0.0000
     32 C           1.4048    5.7150    9.2084 C.3     1  UNL1        0.0000
     33 H           1.2533    6.4082   10.0310 H       1  UNL1        0.0000
     34 H           1.5309    6.3053    8.3070 H       1  UNL1        0.0000
     35 H           2.3304    5.1714    9.3797 H       1  UNL1        0.0000
     36 C          -0.1275    3.8218    7.2556 C.3     1  UNL1        0.0000
     37 H           0.8377    3.4125    6.9754 H       1  UNL1        0.0000
     38 H          -0.3867    4.5770    6.5223 H       1  UNL1        0.0000
     39 H          -0.8580    3.0223    7.1791 H       1  UNL1        0.0000
     40 C           1.4870    0.7001   13.9347 C.ar    1  UNL1        0.0000
     41 C           0.7810    1.8825   14.2340 C.ar    1  UNL1        0.0000
     42 C           0.9256    2.4411   15.5051 C.ar    1  UNL1        0.0000
     43 H           0.3893    3.3527   15.7279 H       1  UNL1        0.0000
     44 C           1.7318    1.8457   16.4554 C.ar    1  UNL1        0.0000
     45 H           1.8175    2.2875   17.4366 H       1  UNL1        0.0000
     46 C           2.4202    0.6825   16.1565 C.ar    1  UNL1        0.0000
     47 H           3.0458    0.2119   16.8997 H       1  UNL1        0.0000
     48 C           2.3035    0.1256   14.8942 C.ar    1  UNL1        0.0000
     49 H           2.8374   -0.7857   14.6584 H       1  UNL1        0.0000
     50 C          -2.2620    2.4087   15.4742 C.3     1  UNL1        0.0000
     51 H          -1.6816    1.7485   16.1113 H       1  UNL1        0.0000
     52 H          -3.3106    2.1699   15.6210 H       1  UNL1        0.0000
     53 H          -2.1078    3.4264   15.8203 H       1  UNL1        0.0000
     54 C          -2.8547    3.4169   12.6207 C.3     1  UNL1        0.0000
     55 H          -3.1136    4.2885   13.2145 H       1  UNL1        0.0000
     56 H          -3.7792    2.9421   12.3088 H       1  UNL1        0.0000
     57 H          -2.3356    3.7675   11.7328 H       1  UNL1        0.0000
     58 C          -2.2929    0.3927   13.1802 C.3     1  UNL1        0.0000
     59 H          -2.1590    0.1751   12.1243 H       1  UNL1        0.0000
     60 H          -3.3391    0.2269   13.4149 H       1  UNL1        0.0000
     61 H          -1.7161   -0.3296   13.7514 H       1  UNL1        0.0000
     62 C           4.1736   -0.3733   10.5390 C.ar    1  UNL1        0.0000
     63 C           4.4002   -0.1876    9.1614 C.ar    1  UNL1        0.0000
     64 C           4.6688   -1.3049    8.3719 C.ar    1  UNL1        0.0000
     65 H           4.8574   -1.1599    7.3214 H       1  UNL1        0.0000
     66 C           4.6978   -2.5741    8.9128 C.ar    1  UNL1        0.0000
     67 H           4.9038   -3.4218    8.2764 H       1  UNL1        0.0000
     68 C           4.4713   -2.7590   10.2660 C.ar    1  UNL1        0.0000
     69 H           4.4993   -3.7476   10.6975 H       1  UNL1        0.0000
     70 C           4.2172   -1.6579   11.0632 C.ar    1  UNL1        0.0000
     71 H           4.0625   -1.7956   12.1243 H       1  UNL1        0.0000
     72 C           4.0138    3.4476    7.0780 C.3     1  UNL1        0.0000
     73 H           3.1626    3.6983    7.7045 H       1  UNL1        0.0000
     74 H           3.8413    3.8938    6.1048 H       1  UNL1        0.0000
     75 H           4.8904    3.9280    7.5018 H       1  UNL1        0.0000
     76 C           2.7502    0.7513    6.0780 C.3     1  UNL1        0.0000
     77 H           2.7465   -0.3247    6.2236 H       1  UNL1        0.0000
     78 H           2.7547    0.9359    5.0081 H       1  UNL1        0.0000
     79 H           1.8107    1.1317    6.4695 H       1  UNL1        0.0000
     80 C           5.8608    1.1807    5.9759 C.3     1  UNL1        0.0000
     81 H           6.7344    1.3178    6.6066 H       1  UNL1        0.0000
     82 H           5.9697    1.8380    5.1184 H       1  UNL1        0.0000
     83 H           5.8854    0.1611    5.6031 H       1  UNL1        0.0000
@<TRIPOS>BOND
     1    78    76    1
     2    82    80    1
     3    83    80    1
     4    80    81    1
     5    80     4    1
     6    76    77    1
     7    76    79    1
     8    76     4    1
     9    74    72    1
    10    38    36    1
    11     4    72    1
    12     4     7    1
    13    37    36    1
    14    72    75    1
    15    72    73    1
    16    39    36    1
    17    36     2    1
    18    65    64    1
    19    67    66    1
    20    34    32    1
    21    64    66   ar
    22    64    63   ar
    23     7    63    1
    24     7     8    1
    25    30    28    1
    26    29    28    1
    27    66    68   ar
    28    10     9    1
    29     2    28    1
    30     2    32    1
    31     2     5    1
    32    63    62   ar
    33    28    31    1
    34    32    35    1
    35    32    33    1
    36    25    24    1
    37    23    22    1
    38    24    22   ar
    39    24    26   ar
    40    22    20   ar
    41    27    26    1
    42    26    18   ar
    43    11     9    1
    44    21    20    1
    45    20    19   ar
    46    18     9    1
    47    18    19   ar
    48     9     1    1
    49    19     5    1
    50    68    69    1
    51    68    70   ar
    52    62    70   ar
    53    62    15    1
    54    70    71    1
    55    16    15    1
    56     1    15    1
    57     1    12    1
    58    15    17    1
    59    57    54    1
    60    59    58    1
    61    13    12    1
    62    56    54    1
    63    14    12    1
    64    12    40    1
    65    54    55    1
    66    54     3    1
    67    58    60    1
    68    58     3    1
    69    58    61    1
    70     6     3    1
    71     6    41    1
    72     3    50    1
    73    40    41   ar
    74    40    48   ar
    75    41    42   ar
    76    49    48    1
    77    48    46   ar
    78    50    52    1
    79    50    53    1
    80    50    51    1
    81    42    43    1
    82    42    44   ar
    83    46    44   ar
    84    46    47    1
    85    44    45    1
