@<TRIPOS>MOLECULE
1,2,3
 57 57 0 0 0
SMALL
GASTEIGER

@<TRIPOS>ATOM
      1 P           3.1820    8.3587    3.9744 P.3     1  UNL1       -0.0891
      2 N           3.6622   10.5534    6.0790 N.pl3   1  UNL1       -0.2401
      3 N           4.9446    9.6290    8.3728 N.3     1  UNL1       -0.3004
      4 C           3.6370   11.3437    7.1630 C.3     1  UNL1        0.1118
      5 C           3.3190   12.6890    7.0452 C.2     1  UNL1       -0.0554
      6 H           3.2917   13.3166    7.9211 H       1  UNL1        0.0595
      7 C           3.0438   13.2128    5.7904 C.2     1  UNL1       -0.0620
      8 H           2.7793   14.2525    5.6802 H       1  UNL1        0.0616
      9 C           3.1527   12.3955    4.6781 C.2     1  UNL1       -0.0431
     10 H           2.9945   12.7939    3.6888 H       1  UNL1        0.0633
     11 C           3.4872   11.0545    4.8435 C.2     1  UNL1        0.0306
     12 C           3.7624   10.1483    3.6944 C.3     1  UNL1        0.0085
     13 H           4.8522   10.0414    3.6532 H       1  UNL1        0.0375
     14 H           3.4225   10.5867    2.7590 H       1  UNL1        0.0375
     15 C           3.9695   10.7176    8.4928 C.3     1  UNL1        0.0280
     16 H           3.0444   10.3056    8.9073 H       1  UNL1        0.0452
     17 H           4.3302   11.5015    9.1731 H       1  UNL1        0.0452
     18 C           6.2907   10.1765    8.1591 C.3     1  UNL1       -0.0039
     19 H           6.2375   10.8138    7.2725 H       1  UNL1        0.0424
     20 H           6.5751   10.8047    9.0143 H       1  UNL1        0.0424
     21 C           7.3493    9.1095    7.9254 C.3     1  UNL1       -0.0524
     22 H           7.6044    8.5789    8.8376 H       1  UNL1        0.0242
     23 H           8.2512    9.5818    7.5463 H       1  UNL1        0.0242
     24 H           6.9922    8.3990    7.1807 H       1  UNL1        0.0242
     25 C           4.8690    8.6631    9.4686 C.3     1  UNL1       -0.0039
     26 H           5.5584    7.8543    9.2283 H       1  UNL1        0.0424
     27 H           3.8641    8.2414    9.4597 H       1  UNL1        0.0424
     28 C           5.1788    9.2139   10.8596 C.3     1  UNL1       -0.0524
     29 H           6.1959    9.5904   10.9246 H       1  UNL1        0.0242
     30 H           5.0751    8.4111   11.5839 H       1  UNL1        0.0242
     31 H           4.4920   10.0090   11.1403 H       1  UNL1        0.0242
     32 C           4.2184    7.3903    2.7139 C.3     1  UNL1       -0.0165
     33 C           3.4595    6.1446    2.2600 C.3     1  UNL1       -0.0561
     34 H           4.1487    5.4779    1.7457 H       1  UNL1        0.0238
     35 H           2.6577    6.3892    1.5684 H       1  UNL1        0.0238
     36 H           3.0588    5.6080    3.1154 H       1  UNL1        0.0238
     37 C           4.5754    8.2567    1.5010 C.3     1  UNL1       -0.0561
     38 H           5.3159    9.0114    1.7490 H       1  UNL1        0.0238
     39 H           3.7109    8.7396    1.0571 H       1  UNL1        0.0238
     40 H           5.0133    7.6096    0.7432 H       1  UNL1        0.0238
     41 C           5.5087    6.9536    3.4050 C.3     1  UNL1       -0.0561
     42 H           5.3093    6.1812    4.1433 H       1  UNL1        0.0238
     43 H           6.0014    7.7862    3.9068 H       1  UNL1        0.0238
     44 H           6.1968    6.5471    2.6667 H       1  UNL1        0.0238
     45 C           1.3432    8.5118    3.4936 C.3     1  UNL1       -0.0165
     46 C           1.1794    9.0607    2.0749 C.3     1  UNL1       -0.0561
     47 H           0.1124    9.1478    1.8741 H       1  UNL1        0.0238
     48 H           1.5918    8.3875    1.3300 H       1  UNL1        0.0238
     49 H           1.6113   10.0489    1.9461 H       1  UNL1        0.0238
     50 C           0.7429    9.4974    4.4939 C.3     1  UNL1       -0.0561
     51 H           1.1292   10.5048    4.3540 H       1  UNL1        0.0238
     52 H           0.9531    9.1689    5.5063 H       1  UNL1        0.0238
     53 H          -0.3372    9.5393    4.3685 H       1  UNL1        0.0238
     54 C           0.5915    7.1869    3.5816 C.3     1  UNL1       -0.0561
     55 H           0.8568    6.6468    4.4804 H       1  UNL1        0.0238
     56 H           0.8015    6.5490    2.7302 H       1  UNL1        0.0238
     57 H          -0.4791    7.3818    3.5941 H       1  UNL1        0.0238
@<TRIPOS>BOND
     1    40    37    1
     2    39    37    1
     3    48    46    1
     4    37    38    1
     5    37    32    1
     6    35    33    1
     7    34    33    1
     8    47    46    1
     9    49    46    1
    10    46    45    1
    11    33    32    1
    12    33    36    1
    13    44    41    1
    14    32    41    1
    15    32     1    1
    16    56    54    1
    17    14    12    1
    18    41    43    1
    19    41    42    1
    20    45    54    1
    21    45     1    1
    22    45    50    1
    23    54    57    1
    24    54    55    1
    25    13    12    1
    26    10     9    1
    27    12     1    1
    28    12    11    1
    29    51    50    1
    30    53    50    1
    31    50    52    1
    32     9    11    2
    33     9     7    1
    34    11     2    1
    35     8     7    1
    36     7     5    2
    37     2     4    1
    38     5     4    1
    39     5     6    1
    40     4    15    1
    41    24    21    1
    42    19    18    1
    43    23    21    1
    44    21    18    1
    45    21    22    1
    46    18     3    1
    47    18    20    1
    48     3    15    1
    49     3    25    1
    50    15    16    1
    51    15    17    1
    52    26    25    1
    53    27    25    1
    54    25    28    1
    55    28    29    1
    56    28    31    1
    57    28    30    1
