@<TRIPOS>MOLECULE
1,2,3
 62 66 0 0 0
SMALL
GASTEIGER

@<TRIPOS>ATOM
      1 P           7.1011    4.7817    4.4703 P.3     1  UNL1       -0.0658
      2 N          10.3036    5.3513    4.5762 N.pl3   1  UNL1       -0.2147
      3 N           8.5688    3.3190    6.5319 N.pl3   1  UNL1       -0.2147
      4 C           7.7564    6.5165    4.1859 C.3     1  UNL1       -0.0010
      5 H           6.9172    7.1791    3.9530 H       1  UNL1        0.0365
      6 H           8.2015    6.8135    5.1446 H       1  UNL1        0.0365
      7 C           8.8112    6.6099    3.1309 C.ar    1  UNL1       -0.0199
      8 C          10.0881    6.0782    3.4027 C.ar    1  UNL1        0.0572
      9 C          11.1113    6.2943    2.4698 C.ar    1  UNL1       -0.0384
     10 H          12.1085    5.9386    2.6909 H       1  UNL1        0.0637
     11 C          10.8648    6.9588    1.2849 C.ar    1  UNL1       -0.0599
     12 H          11.6671    7.1028    0.5764 H       1  UNL1        0.0618
     13 C           9.5980    7.4453    1.0072 C.ar    1  UNL1       -0.0614
     14 H           9.4040    7.9682    0.0832 H       1  UNL1        0.0618
     15 C           8.5868    7.2817    1.9386 C.ar    1  UNL1       -0.0564
     16 H           7.6098    7.7049    1.7474 H       1  UNL1        0.0621
     17 C          11.3345    5.7185    5.4049 C.ar    1  UNL1        0.0537
     18 C          11.8531    7.0254    5.4433 C.ar    1  UNL1       -0.0387
     19 H          11.4556    7.7675    4.7644 H       1  UNL1        0.0637
     20 C          12.8415    7.3674    6.3409 C.ar    1  UNL1       -0.0599
     21 H          13.2198    8.3796    6.3508 H       1  UNL1        0.0618
     22 C          13.3474    6.4326    7.2308 C.ar    1  UNL1       -0.0616
     23 H          14.1213    6.7073    7.9307 H       1  UNL1        0.0618
     24 C          12.8449    5.1413    7.2099 C.ar    1  UNL1       -0.0599
     25 H          13.2319    4.4068    7.9032 H       1  UNL1        0.0618
     26 C          11.8589    4.7789    6.3133 C.ar    1  UNL1       -0.0387
     27 H          11.4697    3.7574    6.2911 H       1  UNL1        0.0637
     28 C           6.3894    5.1635    6.1542 C.3     1  UNL1       -0.0010
     29 H           5.7255    6.0307    6.0763 H       1  UNL1        0.0365
     30 H           5.8069    4.2979    6.4854 H       1  UNL1        0.0365
     31 C           7.5036    5.4374    7.1212 C.ar    1  UNL1       -0.0199
     32 C           8.5372    4.4917    7.2915 C.ar    1  UNL1        0.0572
     33 C           9.5542    4.7641    8.2110 C.ar    1  UNL1       -0.0384
     34 H          10.3041    4.0066    8.3940 H       1  UNL1        0.0637
     35 C           9.5848    5.9588    8.9042 C.ar    1  UNL1       -0.0599
     36 H          10.3850    6.1531    9.6024 H       1  UNL1        0.0618
     37 C           8.5867    6.8982    8.7111 C.ar    1  UNL1       -0.0614
     38 H           8.6058    7.8338    9.2488 H       1  UNL1        0.0618
     39 C           7.5521    6.6276    7.8311 C.ar    1  UNL1       -0.0564
     40 H           6.7645    7.3564    7.6924 H       1  UNL1        0.0621
     41 C           7.5404    2.4255    6.6402 C.ar    1  UNL1        0.0537
     42 C           7.3269    1.5044    5.5954 C.ar    1  UNL1       -0.0387
     43 H           7.9877    1.5573    4.7243 H       1  UNL1        0.0637
     44 C           6.3288    0.5538    5.6842 C.ar    1  UNL1       -0.0599
     45 H           6.1846   -0.1436    4.8714 H       1  UNL1        0.0618
     46 C           5.5042    0.4949    6.7976 C.ar    1  UNL1       -0.0616
     47 H           4.7217   -0.2453    6.8595 H       1  UNL1        0.0618
     48 C           5.7014    1.3950    7.8345 C.ar    1  UNL1       -0.0599
     49 H           5.0693    1.3532    8.7103 H       1  UNL1        0.0618
     50 C           6.6979    2.3452    7.7664 C.ar    1  UNL1       -0.0387
     51 H           6.8551    3.0331    8.5866 H       1  UNL1        0.0637
     52 C           5.5941    4.8867    3.4325 C.ar    1  UNL1       -0.0227
     53 C           5.7598    5.1871    2.0819 C.ar    1  UNL1       -0.0541
     54 H           6.7532    5.3739    1.6985 H       1  UNL1        0.0624
     55 C           4.6701    5.2423    1.2345 C.ar    1  UNL1       -0.0612
     56 H           4.8109    5.4857    0.1914 H       1  UNL1        0.0618
     57 C           3.4001    4.9731    1.7195 C.ar    1  UNL1       -0.0617
     58 H           2.5473    5.0128    1.0584 H       1  UNL1        0.0618
     59 C           3.2315    4.6381    3.0519 C.ar    1  UNL1       -0.0612
     60 H           2.2456    4.4109    3.4305 H       1  UNL1        0.0618
     61 C           4.3210    4.5879    3.9041 C.ar    1  UNL1       -0.0541
     62 H           4.1727    4.3093    4.9367 H       1  UNL1        0.0624
@<TRIPOS>BOND
     1    14    13    1
     2    56    55    1
     3    12    11    1
     4    13    11   ar
     5    13    15   ar
     6    58    57    1
     7    55    57   ar
     8    55    53   ar
     9    11     9   ar
    10    54    53    1
    11    57    59   ar
    12    16    15    1
    13    15     7   ar
    14    53    52   ar
    15     9    10    1
    16     9     8   ar
    17    59    60    1
    18    59    61   ar
    19     7     8   ar
    20     7     4    1
    21     8     2    1
    22    52    61   ar
    23    52     1    1
    24    61    62    1
    25     5     4    1
    26     4     1    1
    27     4     6    1
    28     1    28    1
    29     2    17    1
    30    43    42    1
    31    19    18    1
    32    45    44    1
    33    17    18   ar
    34    17    26   ar
    35    18    20   ar
    36    42    44   ar
    37    42    41   ar
    38    44    46   ar
    39    29    28    1
    40    28    30    1
    41    28    31    1
    42    27    26    1
    43    26    24   ar
    44    20    21    1
    45    20    22   ar
    46     3    41    1
    47     3    32    1
    48    41    50   ar
    49    46    47    1
    50    46    48   ar
    51    31    32   ar
    52    31    39   ar
    53    24    22   ar
    54    24    25    1
    55    22    23    1
    56    32    33   ar
    57    40    39    1
    58    50    48   ar
    59    50    51    1
    60    39    37   ar
    61    48    49    1
    62    33    34    1
    63    33    35   ar
    64    37    35   ar
    65    37    38    1
    66    35    36    1
