@<TRIPOS>MOLECULE
1,4,5
 66 68 0 0 0
SMALL
GASTEIGER

@<TRIPOS>ATOM
      1 P           7.8702    9.1006   12.6414 P.3     1  UNL1        0.0000
      2 SI          9.9929    7.8952    9.0139 Si      1  UNL1        0.0000
      3 SI          5.9477    4.9588   12.6554 Si      1  UNL1        0.0000
      4 N           8.7789    7.5933   10.1878 N.pl3   1  UNL1        0.0000
      5 N           7.2439    6.0024   13.0971 N.pl3   1  UNL1        0.0000
      6 C           7.0803    9.6881   11.0643 C.3     1  UNL1        0.0000
      7 H           6.2892   10.4061   11.3027 H       1  UNL1        0.0000
      8 H           7.8559   10.1926   10.4814 H       1  UNL1        0.0000
      9 C           6.5471    8.5453   10.2598 C.ar    1  UNL1        0.0000
     10 C           7.4454    7.5652    9.7892 C.ar    1  UNL1        0.0000
     11 C           6.9622    6.6211    8.8758 C.ar    1  UNL1        0.0000
     12 H           7.6623    5.9196    8.4453 H       1  UNL1        0.0000
     13 C           5.6317    6.5937    8.5048 C.ar    1  UNL1        0.0000
     14 H           5.2874    5.8513    7.7998 H       1  UNL1        0.0000
     15 C           4.7433    7.5170    9.0284 C.ar    1  UNL1        0.0000
     16 H           3.7011    7.4948    8.7486 H       1  UNL1        0.0000
     17 C           5.2124    8.4944    9.8907 C.ar    1  UNL1        0.0000
     18 H           4.5329    9.2502   10.2625 H       1  UNL1        0.0000
     19 C          11.6215    8.0716    9.9896 C.3     1  UNL1        0.0000
     20 H          11.6065    8.9294   10.6529 H       1  UNL1        0.0000
     21 H          12.4486    8.2121    9.3025 H       1  UNL1        0.0000
     22 H          11.8333    7.1876   10.5837 H       1  UNL1        0.0000
     23 C          10.2657    6.5676    7.6508 C.3     1  UNL1        0.0000
     24 H          10.2899    5.5590    8.0537 H       1  UNL1        0.0000
     25 H          11.2069    6.7332    7.1355 H       1  UNL1        0.0000
     26 H           9.4793    6.6050    6.9026 H       1  UNL1        0.0000
     27 C           9.6250    9.5279    8.0791 C.3     1  UNL1        0.0000
     28 H           8.5978    9.5416    7.7264 H       1  UNL1        0.0000
     29 H          10.2704    9.6422    7.2148 H       1  UNL1        0.0000
     30 H           9.7682   10.4010    8.7087 H       1  UNL1        0.0000
     31 C           6.3065    8.6654   13.5463 C.3     1  UNL1        0.0000
     32 H           5.7740    9.5627   13.8713 H       1  UNL1        0.0000
     33 H           5.6948    8.1266   12.8156 H       1  UNL1        0.0000
     34 C           6.6321    7.7574   14.6924 C.ar    1  UNL1        0.0000
     35 C           7.1638    6.4836   14.4154 C.ar    1  UNL1        0.0000
     36 C           7.4988    5.6595   15.4910 C.ar    1  UNL1        0.0000
     37 H           7.9206    4.6888   15.2791 H       1  UNL1        0.0000
     38 C           7.2789    6.0564   16.7945 C.ar    1  UNL1        0.0000
     39 H           7.5314    5.3912   17.6065 H       1  UNL1        0.0000
     40 C           6.7164    7.2926   17.0585 C.ar    1  UNL1        0.0000
     41 H           6.5192    7.5992   18.0744 H       1  UNL1        0.0000
     42 C           6.4130    8.1375   16.0065 C.ar    1  UNL1        0.0000
     43 H           5.9669    9.1017   16.2133 H       1  UNL1        0.0000
     44 C           5.5523    3.5825   13.9295 C.3     1  UNL1        0.0000
     45 H           6.3827    2.9019   14.0893 H       1  UNL1        0.0000
     46 H           4.7041    2.9887   13.6035 H       1  UNL1        0.0000
     47 H           5.2991    4.0178   14.8911 H       1  UNL1        0.0000
     48 C           6.4169    4.1415   10.9978 C.3     1  UNL1        0.0000
     49 H           7.0640    4.7884   10.4111 H       1  UNL1        0.0000
     50 H           5.5206    3.9648   10.4140 H       1  UNL1        0.0000
     51 H           6.9044    3.1816   11.1323 H       1  UNL1        0.0000
     52 C           4.2773    5.8745   12.4107 C.3     1  UNL1        0.0000
     53 H           3.9890    6.4184   13.3060 H       1  UNL1        0.0000
     54 H           3.4831    5.1664   12.1951 H       1  UNL1        0.0000
     55 H           4.3148    6.5771   11.5828 H       1  UNL1        0.0000
     56 C           8.3348   10.7477   13.2977 C.ar    1  UNL1        0.0000
     57 C           9.2631   11.4753   12.5544 C.ar    1  UNL1        0.0000
     58 H           9.6443   11.0606   11.6301 H       1  UNL1        0.0000
     59 C           9.7065   12.7079   12.9932 C.ar    1  UNL1        0.0000
     60 H          10.4192   13.2663   12.4041 H       1  UNL1        0.0000
     61 C           9.2446   13.2224   14.1943 C.ar    1  UNL1        0.0000
     62 H           9.5899   14.1853   14.5397 H       1  UNL1        0.0000
     63 C           8.3531   12.4885   14.9578 C.ar    1  UNL1        0.0000
     64 H           8.0080   12.8760   15.9053 H       1  UNL1        0.0000
     65 C           7.9054   11.2548   14.5180 C.ar    1  UNL1        0.0000
     66 H           7.2357   10.6799   15.1374 H       1  UNL1        0.0000
@<TRIPOS>BOND
     1    26    23    1
     2    25    23    1
     3    29    27    1
     4    23    24    1
     5    23     2    1
     6    28    27    1
     7    14    13    1
     8    27    30    1
     9    27     2    1
    10    12    11    1
    11    13    11   ar
    12    13    15   ar
    13    16    15    1
    14    11    10   ar
    15     2    19    1
    16     2     4    1
    17    15    17   ar
    18    21    19    1
    19    10     4    1
    20    10     9   ar
    21    17     9   ar
    22    17    18    1
    23    19    22    1
    24    19    20    1
    25     9     6    1
    26    49    48    1
    27    50    48    1
    28     8     6    1
    29    48    51    1
    30    48     3    1
    31     6     7    1
    32     6     1    1
    33    55    52    1
    34    58    57    1
    35    54    52    1
    36    60    59    1
    37    52     3    1
    38    52    53    1
    39    57    59   ar
    40    57    56   ar
    41     1    56    1
    42     1    31    1
    43     3     5    1
    44     3    44    1
    45    33    31    1
    46    59    61   ar
    47     5    35    1
    48    56    65   ar
    49    31    32    1
    50    31    34    1
    51    46    44    1
    52    44    45    1
    53    44    47    1
    54    61    62    1
    55    61    63   ar
    56    35    34   ar
    57    35    36   ar
    58    65    63   ar
    59    65    66    1
    60    34    42   ar
    61    63    64    1
    62    37    36    1
    63    36    38   ar
    64    42    43    1
    65    42    40   ar
    66    38    40   ar
    67    38    39    1
    68    40    41    1
