@<TRIPOS>MOLECULE
1,2,3
 72 74 0 0 0
SMALL
GASTEIGER

@<TRIPOS>ATOM
      1 P          14.8332    5.2215    3.0915 P.3     1  UNL1       -0.0423
      2 N          14.8579    9.3980    6.1211 N.pl3   1  UNL1       -0.2371
      3 N          15.6571    8.2695    3.5943 N.pl3   1  UNL1       -0.2551
      4 C          14.2970   11.7860    5.9994 C.3     1  UNL1       -0.0359
      5 H          13.2800   11.7388    6.3873 H       1  UNL1        0.0255
      6 H          14.3542   12.6012    5.2830 H       1  UNL1        0.0255
      7 H          14.9552   12.0010    6.8386 H       1  UNL1        0.0255
      8 C          14.6460   10.4599    5.3569 C.3     1  UNL1        0.0968
      9 C          14.7627   10.4529    3.9659 C.2     1  UNL1       -0.0387
     10 H          14.5071   11.3790    3.4720 H       1  UNL1        0.0610
     11 C          15.3543    9.4774    3.1535 C.2     1  UNL1        0.0204
     12 C          15.7155    9.9430    1.7568 C.3     1  UNL1       -0.0253
     13 H          16.7767   10.1914    1.7111 H       1  UNL1        0.0290
     14 H          15.1532   10.8376    1.5056 H       1  UNL1        0.0290
     15 H          15.5083    9.1858    1.0037 H       1  UNL1        0.0290
     16 C          16.4663    7.4088    2.7474 C.3     1  UNL1        0.0355
     17 H          17.1166    6.8068    3.3992 H       1  UNL1        0.0485
     18 H          17.1210    7.9839    2.0822 H       1  UNL1        0.0485
     19 C          15.5885    6.4561    1.9220 C.3     1  UNL1       -0.0069
     20 H          16.1697    5.9668    1.1377 H       1  UNL1        0.0335
     21 H          14.7715    7.0092    1.4492 H       1  UNL1        0.0335
     22 C          13.5881    4.4840    1.9704 C.ar    1  UNL1       -0.0189
     23 C          12.5018    5.2890    1.6340 C.ar    1  UNL1       -0.0538
     24 H          12.4461    6.2964    2.0255 H       1  UNL1        0.0624
     25 C          11.4958    4.8030    0.8218 C.ar    1  UNL1       -0.0612
     26 H          10.6599    5.4362    0.5624 H       1  UNL1        0.0618
     27 C          11.5556    3.5012    0.3496 C.ar    1  UNL1       -0.0617
     28 H          10.7694    3.1180   -0.2836 H       1  UNL1        0.0618
     29 C          12.6199    2.6890    0.7022 C.ar    1  UNL1       -0.0612
     30 H          12.6624    1.6700    0.3461 H       1  UNL1        0.0618
     31 C          13.6315    3.1724    1.5141 C.ar    1  UNL1       -0.0538
     32 H          14.4519    2.5270    1.7918 H       1  UNL1        0.0624
     33 C          16.1011    3.8948    3.1362 C.ar    1  UNL1       -0.0189
     34 C          16.9279    3.5439    2.0725 C.ar    1  UNL1       -0.0538
     35 H          16.8607    4.0575    1.1243 H       1  UNL1        0.0624
     36 C          17.8373    2.5110    2.2119 C.ar    1  UNL1       -0.0612
     37 H          18.4750    2.2457    1.3808 H       1  UNL1        0.0618
     38 C          17.9301    1.8131    3.4060 C.ar    1  UNL1       -0.0617
     39 H          18.6455    1.0103    3.5061 H       1  UNL1        0.0618
     40 C          17.0993    2.1445    4.4625 C.ar    1  UNL1       -0.0612
     41 H          17.1536    1.6064    5.3967 H       1  UNL1        0.0618
     42 C          16.1901    3.1784    4.3266 C.ar    1  UNL1       -0.0538
     43 H          15.5422    3.4351    5.1520 H       1  UNL1        0.0624
     44 C          15.1696    9.6516    7.4815 C.ar    1  UNL1        0.0557
     45 C          16.5108    9.9437    7.7994 C.ar    1  UNL1       -0.0219
     46 C          16.8393   10.2368    9.1140 C.ar    1  UNL1       -0.0565
     47 H          17.8573   10.4880    9.3689 H       1  UNL1        0.0621
     48 C          15.8821   10.2110   10.1114 C.ar    1  UNL1       -0.0611
     49 H          16.1566   10.4390   11.1308 H       1  UNL1        0.0618
     50 C          14.5768    9.8895    9.7988 C.ar    1  UNL1       -0.0565
     51 H          13.8369    9.8628   10.5844 H       1  UNL1        0.0621
     52 C          14.1973    9.6243    8.4900 C.ar    1  UNL1       -0.0219
     53 C          17.5778    9.9312    6.7238 C.3     1  UNL1       -0.0197
     54 H          17.2206    9.2859    5.9111 H       1  UNL1        0.0344
     55 C          17.8101   11.3341    6.1514 C.3     1  UNL1       -0.0586
     56 H          16.9475   11.6737    5.5871 H       1  UNL1        0.0235
     57 H          18.6689   11.3231    5.4827 H       1  UNL1        0.0235
     58 H          18.0075   12.0434    6.9536 H       1  UNL1        0.0235
     59 C          18.9131    9.3794    7.2321 C.3     1  UNL1       -0.0586
     60 H          19.4291   10.1105    7.8505 H       1  UNL1        0.0235
     61 H          19.5598    9.1444    6.3884 H       1  UNL1        0.0235
     62 H          18.7693    8.4758    7.8193 H       1  UNL1        0.0235
     63 C          12.7521    9.3006    8.1820 C.3     1  UNL1       -0.0197
     64 H          12.6331    9.2230    7.0910 H       1  UNL1        0.0344
     65 C          11.8067   10.3947    8.6864 C.3     1  UNL1       -0.0586
     66 H          11.7894   10.4248    9.7730 H       1  UNL1        0.0235
     67 H          10.7940   10.2006    8.3382 H       1  UNL1        0.0235
     68 H          12.1137   11.3742    8.3261 H       1  UNL1        0.0235
     69 C          12.3747    7.9525    8.8034 C.3     1  UNL1       -0.0586
     70 H          13.0130    7.1612    8.4125 H       1  UNL1        0.0235
     71 H          11.3383    7.7085    8.5773 H       1  UNL1        0.0235
     72 H          12.4919    7.9825    9.8845 H       1  UNL1        0.0235
@<TRIPOS>BOND
     1    28    27    1
     2    30    29    1
     3    27    29   ar
     4    27    25   ar
     5    26    25    1
     6    29    31   ar
     7    25    23   ar
     8    15    12    1
     9    35    34    1
    10    20    19    1
    11    37    36    1
    12    21    19    1
    13    14    12    1
    14    31    32    1
    15    31    22   ar
    16    23    22   ar
    17    23    24    1
    18    13    12    1
    19    12    11    1
    20    19    16    1
    21    19     1    1
    22    22     1    1
    23    34    36   ar
    24    34    33   ar
    25    18    16    1
    26    36    38   ar
    27    16    17    1
    28    16     3    1
    29     1    33    1
    30    33    42   ar
    31    11     3    1
    32    11     9    2
    33    38    39    1
    34    38    40   ar
    35    10     9    1
    36     9     8    1
    37    42    40   ar
    38    42    43    1
    39    40    41    1
    40     6     4    1
    41     8     4    1
    42     8     2    1
    43    57    55    1
    44    56    55    1
    45    54    53    1
    46     4     5    1
    47     4     7    1
    48     2    44    1
    49    55    53    1
    50    55    58    1
    51    61    59    1
    52    53    59    1
    53    53    45    1
    54    64    63    1
    55    59    62    1
    56    59    60    1
    57    44    45   ar
    58    44    52   ar
    59    45    46   ar
    60    63    52    1
    61    63    65    1
    62    63    69    1
    63    68    65    1
    64    67    65    1
    65    70    69    1
    66    52    50   ar
    67    71    69    1
    68    65    66    1
    69    69    72    1
    70    46    47    1
    71    46    48   ar
    72    50    48   ar
    73    50    51    1
    74    48    49    1
