@<TRIPOS>MOLECULE
1,2,3
 72 74 0 0 0
SMALL
GASTEIGER

@<TRIPOS>ATOM
      1 P           0.9850    4.9022   13.8432 P.3     1  UNL1       -0.0426
      2 N          -0.8473    1.6740   17.4560 N.pl3   1  UNL1       -0.2412
      3 N          -1.3201    3.9047   15.5417 N.3     1  UNL1       -0.2314
      4 C          -2.7574    0.1194   17.5050 C.3     1  UNL1       -0.0395
      5 H          -2.2100   -0.3465   18.3201 H       1  UNL1        0.0252
      6 H          -2.9617   -0.6268   16.7395 H       1  UNL1        0.0252
      7 H          -3.7123    0.4748   17.8900 H       1  UNL1        0.0252
      8 C          -1.9752    1.2690   16.9033 C.3     1  UNL1        0.0788
      9 C          -2.5744    1.8729   15.7920 C.3     1  UNL1        0.0118
     10 H          -3.4492    1.3537   15.4243 H       1  UNL1        0.0346
     11 C          -2.3711    3.1551   15.2611 C.3     1  UNL1        0.0587
     12 C          -3.5034    3.6768   14.3988 C.3     1  UNL1       -0.0432
     13 H          -3.9951    4.5177   14.8878 H       1  UNL1        0.0249
     14 H          -4.2440    2.9011   14.2288 H       1  UNL1        0.0249
     15 H          -3.1322    4.0140   13.4305 H       1  UNL1        0.0249
     16 C          -1.3765    5.3171   15.2075 C.3     1  UNL1        0.0191
     17 H          -1.9272    5.8504   15.9999 H       1  UNL1        0.0445
     18 H          -1.9045    5.5020   14.2624 H       1  UNL1        0.0445
     19 C           0.0224    5.9165   15.0788 C.3     1  UNL1       -0.0102
     20 H           0.5480    5.8588   16.0380 H       1  UNL1        0.0332
     21 H          -0.0432    6.9622   14.7612 H       1  UNL1        0.0332
     22 C          -0.1317    5.1308   12.4034 C.ar    1  UNL1       -0.0189
     23 C          -0.7729    4.0047   11.8996 C.ar    1  UNL1       -0.0538
     24 H          -0.5699    3.0404   12.3484 H       1  UNL1        0.0624
     25 C          -1.6607    4.1186   10.8435 C.ar    1  UNL1       -0.0612
     26 H          -2.1569    3.2399   10.4578 H       1  UNL1        0.0618
     27 C          -1.9119    5.3601   10.2836 C.ar    1  UNL1       -0.0617
     28 H          -2.6042    5.4522    9.4598 H       1  UNL1        0.0618
     29 C          -1.2732    6.4860   10.7799 C.ar    1  UNL1       -0.0612
     30 H          -1.4689    7.4541   10.3419 H       1  UNL1        0.0618
     31 C          -0.3868    6.3751   11.8353 C.ar    1  UNL1       -0.0538
     32 H           0.1147    7.2544   12.2159 H       1  UNL1        0.0624
     33 C           2.3019    6.0884   13.3996 C.ar    1  UNL1       -0.0189
     34 C           2.8028    6.0950   12.1001 C.ar    1  UNL1       -0.0538
     35 H           2.3575    5.4508   11.3548 H       1  UNL1        0.0624
     36 C           3.8544    6.9238   11.7587 C.ar    1  UNL1       -0.0612
     37 H           4.2281    6.9279   10.7451 H       1  UNL1        0.0618
     38 C           4.4323    7.7440   12.7143 C.ar    1  UNL1       -0.0617
     39 H           5.2543    8.3915   12.4475 H       1  UNL1        0.0618
     40 C           3.9580    7.7230   14.0151 C.ar    1  UNL1       -0.0612
     41 H           4.4135    8.3515   14.7667 H       1  UNL1        0.0618
     42 C           2.9042    6.8958   14.3596 C.ar    1  UNL1       -0.0538
     43 H           2.5534    6.8747   15.3810 H       1  UNL1        0.0624
     44 C          -0.5338    1.2843   18.7768 C.ar    1  UNL1        0.0553
     45 C          -1.0732    2.0370   19.8380 C.ar    1  UNL1       -0.0220
     46 C          -0.6816    1.7471   21.1345 C.ar    1  UNL1       -0.0565
     47 H          -1.0701    2.3276   21.9562 H       1  UNL1        0.0621
     48 C           0.2065    0.7199   21.3987 C.ar    1  UNL1       -0.0611
     49 H           0.5040    0.5104   22.4155 H       1  UNL1        0.0618
     50 C           0.7039   -0.0395   20.3593 C.ar    1  UNL1       -0.0565
     51 H           1.3854   -0.8490   20.5739 H       1  UNL1        0.0621
     52 C           0.3388    0.2192   19.0454 C.ar    1  UNL1       -0.0220
     53 C          -2.0200    3.1788   19.5372 C.3     1  UNL1       -0.0197
     54 H          -2.6011    2.9150   18.6474 H       1  UNL1        0.0344
     55 C          -3.0059    3.4662   20.6687 C.3     1  UNL1       -0.0586
     56 H          -3.4893    2.5500   21.0009 H       1  UNL1        0.0235
     57 H          -3.7747    4.1526   20.3188 H       1  UNL1        0.0235
     58 H          -2.5095    3.9286   21.5185 H       1  UNL1        0.0235
     59 C          -1.2051    4.4330   19.2054 C.3     1  UNL1       -0.0586
     60 H          -0.5512    4.6911   20.0363 H       1  UNL1        0.0235
     61 H          -1.8685    5.2734   19.0076 H       1  UNL1        0.0235
     62 H          -0.5939    4.2521   18.3176 H       1  UNL1        0.0235
     63 C           0.8845   -0.6424   17.9289 C.3     1  UNL1       -0.0197
     64 H           0.3944   -0.3491   16.9922 H       1  UNL1        0.0344
     65 C           0.5844   -2.1250   18.1646 C.3     1  UNL1       -0.0586
     66 H           1.1070   -2.4983   19.0417 H       1  UNL1        0.0235
     67 H           0.9045   -2.7093   17.3043 H       1  UNL1        0.0235
     68 H          -0.4822   -2.2834   18.3097 H       1  UNL1        0.0235
     69 C           2.3909   -0.4172   17.7718 C.3     1  UNL1       -0.0586
     70 H           2.5951    0.6366   17.5633 H       1  UNL1        0.0235
     71 H           2.7771   -1.0167   16.9505 H       1  UNL1        0.0235
     72 H           2.9162   -0.6980   18.6824 H       1  UNL1        0.0235
@<TRIPOS>BOND
     1    28    27    1
     2    27    29   ar
     3    27    25   ar
     4    30    29    1
     5    26    25    1
     6    37    36    1
     7    29    31   ar
     8    25    23   ar
     9    35    34    1
    10    36    34   ar
    11    36    38   ar
    12    31    32    1
    13    31    22   ar
    14    23    24    1
    15    23    22   ar
    16    34    33   ar
    17    22     1    1
    18    39    38    1
    19    38    40   ar
    20    33     1    1
    21    33    42   ar
    22    15    12    1
    23     1    19    1
    24    40    42   ar
    25    40    41    1
    26    14    12    1
    27    18    16    1
    28    42    43    1
    29    12    13    1
    30    12    11    1
    31    21    19    1
    32    19    16    1
    33    19    20    1
    34    16     3    1
    35    16    17    1
    36    11     3    1
    37    11     9    1
    38    10     9    1
    39     9     8    1
    40     6     4    1
    41     8     2    1
    42     8     4    1
    43    71    69    1
    44    64    63    1
    45    67    65    1
    46     2    44    1
    47     4     7    1
    48     4     5    1
    49    70    69    1
    50    69    63    1
    51    69    72    1
    52    63    65    1
    53    63    52    1
    54    65    68    1
    55    65    66    1
    56    62    59    1
    57    54    53    1
    58    44    52   ar
    59    44    45   ar
    60    61    59    1
    61    52    50   ar
    62    59    53    1
    63    59    60    1
    64    53    45    1
    65    53    55    1
    66    45    46   ar
    67    57    55    1
    68    50    51    1
    69    50    48   ar
    70    55    56    1
    71    55    58    1
    72    46    48   ar
    73    46    47    1
    74    48    49    1
