@<TRIPOS>MOLECULE
1,5,6
 76 79 0 0 0
SMALL
GASTEIGER

@<TRIPOS>ATOM
      1 P           8.5901    1.4368    2.6132 P.3     1  UNL1        0.0000
      2 P           5.7400    1.8455    3.0735 P.3     1  UNL1        0.0000
      3 SI         11.0330    2.3857    4.1270 Si      1  UNL1        0.0000
      4 SI          4.7038    2.3927    5.7885 Si      1  UNL1        0.0000
      5 N           9.3462    2.3361    3.7066 N.3     1  UNL1        0.0000
      6 N           5.9773    2.2201    4.6107 N.3     1  UNL1        0.0000
      7 C          11.4445    1.0803    5.4731 C.3     1  UNL1        0.0000
      8 C          11.3783    4.1511    4.7677 C.3     1  UNL1        0.0000
      9 C          12.2616    2.0796    2.6915 C.3     1  UNL1        0.0000
     10 C           9.6458    2.3796    0.3016 C.ar    1  UNL1        0.0000
     11 C          10.4244    2.3818   -0.8403 C.ar    1  UNL1        0.0000
     12 C          11.1660    1.2579   -1.1696 C.ar    1  UNL1        0.0000
     13 C          11.1353    0.1410   -0.3511 C.ar    1  UNL1        0.0000
     14 C          10.3602    0.1376    0.7958 C.ar    1  UNL1        0.0000
     15 C           9.5997    1.2535    1.1162 C.ar    1  UNL1        0.0000
     16 C           8.3792   -0.4858    4.6029 C.ar    1  UNL1        0.0000
     17 C           8.1140   -1.7497    5.1007 C.ar    1  UNL1        0.0000
     18 C           7.7984   -2.7848    4.2349 C.ar    1  UNL1        0.0000
     19 C           7.7178   -2.5502    2.8705 C.ar    1  UNL1        0.0000
     20 C           7.9690   -1.2879    2.3688 C.ar    1  UNL1        0.0000
     21 C           8.3296   -0.2564    3.2333 C.ar    1  UNL1        0.0000
     22 C           7.1208    2.2452    2.0604 C.3     1  UNL1        0.0000
     23 C           5.0605   -0.7138    4.0161 C.ar    1  UNL1        0.0000
     24 C           4.6529   -2.0263    3.8593 C.ar    1  UNL1        0.0000
     25 C           4.3380   -2.5109    2.6007 C.ar    1  UNL1        0.0000
     26 C           4.4416   -1.6840    1.4925 C.ar    1  UNL1        0.0000
     27 C           4.8495   -0.3731    1.6462 C.ar    1  UNL1        0.0000
     28 C           5.1444    0.1235    2.9126 C.ar    1  UNL1        0.0000
     29 C           3.1594    2.3827    1.9304 C.ar    1  UNL1        0.0000
     30 C           2.2265    3.2806    1.4395 C.ar    1  UNL1        0.0000
     31 C           2.5253    4.6312    1.3691 C.ar    1  UNL1        0.0000
     32 C           3.7651    5.0911    1.7858 C.ar    1  UNL1        0.0000
     33 C           4.7007    4.1964    2.2694 C.ar    1  UNL1        0.0000
     34 C           4.4030    2.8396    2.3431 C.ar    1  UNL1        0.0000
     35 C           5.1273    1.2551    7.2761 C.3     1  UNL1        0.0000
     36 C           2.9588    1.8924    5.1808 C.3     1  UNL1        0.0000
     37 C           4.5963    4.2217    6.3354 C.3     1  UNL1        0.0000
     38 H          11.2967    0.0660    5.1111 H       1  UNL1        0.0000
     39 H          10.8297    1.2144    6.3582 H       1  UNL1        0.0000
     40 H          12.4824    1.1722    5.7767 H       1  UNL1        0.0000
     41 H          11.3664    4.8724    3.9564 H       1  UNL1        0.0000
     42 H          12.3570    4.1944    5.2334 H       1  UNL1        0.0000
     43 H          10.6391    4.4635    5.4972 H       1  UNL1        0.0000
     44 H          12.2860    1.0389    2.3862 H       1  UNL1        0.0000
     45 H          13.2621    2.3516    3.0113 H       1  UNL1        0.0000
     46 H          12.0229    2.6743    1.8160 H       1  UNL1        0.0000
     47 H           9.0624    3.2472    0.5846 H       1  UNL1        0.0000
     48 H          10.4572    3.2565   -1.4736 H       1  UNL1        0.0000
     49 H          11.7740    1.2545   -2.0624 H       1  UNL1        0.0000
     50 H          11.7240   -0.7294   -0.6038 H       1  UNL1        0.0000
     51 H          10.3498   -0.7296    1.4426 H       1  UNL1        0.0000
     52 H           8.6360    0.3399    5.2614 H       1  UNL1        0.0000
     53 H           8.1594   -1.9307    6.1654 H       1  UNL1        0.0000
     54 H           7.6051   -3.7747    4.6215 H       1  UNL1        0.0000
     55 H           7.4530   -3.3534    2.1979 H       1  UNL1        0.0000
     56 H           7.8893   -1.0943    1.3062 H       1  UNL1        0.0000
     57 H           6.8827    1.9085    1.0380 H       1  UNL1        0.0000
     58 H           5.3140   -0.3254    4.9923 H       1  UNL1        0.0000
     59 H           4.5807   -2.6731    4.7215 H       1  UNL1        0.0000
     60 H           4.0168   -3.5351    2.4800 H       1  UNL1        0.0000
     61 H           4.2040   -2.0642    0.5091 H       1  UNL1        0.0000
     62 H           4.9381    0.2789    0.7856 H       1  UNL1        0.0000
     63 H           2.9163    1.3308    1.9908 H       1  UNL1        0.0000
     64 H           1.2596    2.9238    1.1146 H       1  UNL1        0.0000
     65 H           1.7902    5.3256    0.9891 H       1  UNL1        0.0000
     66 H           3.9977    6.1447    1.7308 H       1  UNL1        0.0000
     67 H           5.6822    4.5239    2.5923 H       1  UNL1        0.0000
     68 H           6.1495    0.8905    7.2290 H       1  UNL1        0.0000
     69 H           4.4624    0.3977    7.3264 H       1  UNL1        0.0000
     70 H           5.0175    1.8029    8.2053 H       1  UNL1        0.0000
     71 H           2.9695    0.9553    4.6324 H       1  UNL1        0.0000
     72 H           2.5314    2.6510    4.5330 H       1  UNL1        0.0000
     73 H           2.2904    1.7709    6.0273 H       1  UNL1        0.0000
     74 H           5.5673    4.5966    6.6452 H       1  UNL1        0.0000
     75 H           3.9114    4.3238    7.1705 H       1  UNL1        0.0000
     76 H           4.2332    4.8563    5.5314 H       1  UNL1        0.0000
@<TRIPOS>BOND
     1    49    12    1
     2    48    11    1
     3    12    11   ar
     4    12    13   ar
     5    11    10   ar
     6    50    13    1
     7    13    14   ar
     8    10    47    1
     9    10    15   ar
    10    61    26    1
    11    62    27    1
    12    14    15   ar
    13    14    51    1
    14    65    31    1
    15    57    22    1
    16    64    30    1
    17    15     1    1
    18    56    20    1
    19    31    30   ar
    20    31    32   ar
    21    30    29   ar
    22    26    27   ar
    23    26    25   ar
    24    27    28   ar
    25    66    32    1
    26    32    33   ar
    27    46     9    1
    28    29    63    1
    29    29    34   ar
    30    22     1    1
    31    22     2    1
    32    55    19    1
    33    33    34   ar
    34    33    67    1
    35    34     2    1
    36    20    19   ar
    37    20    21   ar
    38    44     9    1
    39    60    25    1
    40    25    24   ar
    41     1    21    1
    42     1     5    1
    43     9    45    1
    44     9     3    1
    45    19    18   ar
    46    28     2    1
    47    28    23   ar
    48     2     6    1
    49    21    16   ar
    50     5     3    1
    51    24    23   ar
    52    24    59    1
    53    41     8    1
    54    23    58    1
    55     3     8    1
    56     3     7    1
    57    18    54    1
    58    18    17   ar
    59    72    36    1
    60    16    17   ar
    61    16    52    1
    62     6     4    1
    63    71    36    1
    64     8    42    1
    65     8    43    1
    66    17    53    1
    67    38     7    1
    68    36     4    1
    69    36    73    1
    70     7    40    1
    71     7    39    1
    72    76    37    1
    73     4    37    1
    74     4    35    1
    75    37    74    1
    76    37    75    1
    77    68    35    1
    78    35    69    1
    79    35    70    1
