@<TRIPOS>MOLECULE
1,4,10
 78 77 0 0 0
SMALL
GASTEIGER

@<TRIPOS>ATOM
      1 P           3.6112    0.6685    3.1668 P.3     1  UNL1        0.0000
      2 P           4.4446    6.4230    0.3031 P.3     1  UNL1        0.0000
      3 SI          6.1980    4.0134    3.8063 Si      1  UNL1        0.0000
      4 N           5.0884    3.1983    2.6556 N.3     1  UNL1        0.0000
      5 C           4.3529   -0.9714    3.7061 C.3     1  UNL1        0.0000
      6 H           4.3264   -1.7031    2.8913 H       1  UNL1        0.0000
      7 C           4.2580    4.0384    1.8222 C.3     1  UNL1        0.0000
      8 H           3.8699    4.8399    2.4522 H       1  UNL1        0.0000
      9 H           3.3990    3.4586    1.4662 H       1  UNL1        0.0000
     10 N           5.7004    3.0996    5.1377 N.3     1  UNL1        0.0000
     11 C           4.5924    0.9930    1.6169 C.3     1  UNL1        0.0000
     12 H           5.0806    0.0879    1.2491 H       1  UNL1        0.0000
     13 H           3.9217    1.3597    0.8380 H       1  UNL1        0.0000
     14 C           1.9560    0.1112    2.4520 C.3     1  UNL1        0.0000
     15 H           1.4027   -0.2814    3.3136 H       1  UNL1        0.0000
     16 C           5.6410    2.0566    1.9511 C.3     1  UNL1        0.0000
     17 H           6.3895    1.6128    2.6064 H       1  UNL1        0.0000
     18 H           6.1510    2.3689    1.0269 H       1  UNL1        0.0000
     19 C           3.1364    6.1001   -1.0192 C.3     1  UNL1        0.0000
     20 H           3.4953    5.3323   -1.7154 H       1  UNL1        0.0000
     21 C           2.0112   -0.9608    1.3684 C.3     1  UNL1        0.0000
     22 H           1.0039   -1.1737    1.0111 H       1  UNL1        0.0000
     23 H           2.4325   -1.8874    1.7490 H       1  UNL1        0.0000
     24 H           2.6061   -0.6321    0.5194 H       1  UNL1        0.0000
     25 C           3.5639   -1.4896    4.9022 C.3     1  UNL1        0.0000
     26 H           4.0461   -2.3661    5.3326 H       1  UNL1        0.0000
     27 H           2.5511   -1.7668    4.6190 H       1  UNL1        0.0000
     28 H           3.5120   -0.7100    5.6612 H       1  UNL1        0.0000
     29 C           5.7973   -0.6976    4.1100 C.3     1  UNL1        0.0000
     30 H           6.1860   -1.5052    4.7278 H       1  UNL1        0.0000
     31 H           5.8334    0.2358    4.6790 H       1  UNL1        0.0000
     32 H           6.4404   -0.6023    3.2381 H       1  UNL1        0.0000
     33 C           4.9936    4.6653    0.6248 C.3     1  UNL1        0.0000
     34 H           4.8865    4.0559   -0.2760 H       1  UNL1        0.0000
     35 H           6.0543    4.7243    0.8775 H       1  UNL1        0.0000
     36 C           1.2202    1.3568    1.9644 C.3     1  UNL1        0.0000
     37 H           0.1659    1.1428    1.7943 H       1  UNL1        0.0000
     38 H           1.6402    1.7162    1.0259 H       1  UNL1        0.0000
     39 H           1.3014    2.1474    2.7144 H       1  UNL1        0.0000
     40 C           6.1303    3.2102    6.5091 C.3     1  UNL1        0.0000
     41 C           5.8902    7.0106   -0.7614 C.3     1  UNL1        0.0000
     42 H           5.5356    7.9460   -1.2117 H       1  UNL1        0.0000
     43 C           1.8746    5.5889   -0.3272 C.3     1  UNL1        0.0000
     44 H           1.0843    5.4160   -1.0570 H       1  UNL1        0.0000
     45 H           1.5191    6.3212    0.3953 H       1  UNL1        0.0000
     46 H           2.0624    4.6564    0.1991 H       1  UNL1        0.0000
     47 C           5.2020    4.1885    7.2509 C.3     1  UNL1        0.0000
     48 H           4.1715    3.8484    7.1562 H       1  UNL1        0.0000
     49 H           5.2865    5.1786    6.8088 H       1  UNL1        0.0000
     50 H           5.4637    4.2518    8.3050 H       1  UNL1        0.0000
     51 C           6.3464    6.0745   -1.8753 C.3     1  UNL1        0.0000
     52 H           7.1286    6.5584   -2.4598 H       1  UNL1        0.0000
     53 H           5.5305    5.8265   -2.5500 H       1  UNL1        0.0000
     54 H           6.7561    5.1523   -1.4695 H       1  UNL1        0.0000
     55 C           7.0560    7.3645    0.1611 C.3     1  UNL1        0.0000
     56 H           7.8541    7.8451   -0.4032 H       1  UNL1        0.0000
     57 H           7.4691    6.4760    0.6351 H       1  UNL1        0.0000
     58 H           6.7290    8.0482    0.9427 H       1  UNL1        0.0000
     59 C           2.8177    7.3779   -1.7892 C.3     1  UNL1        0.0000
     60 H           1.9595    7.2182   -2.4412 H       1  UNL1        0.0000
     61 H           3.6548    7.6932   -2.4073 H       1  UNL1        0.0000
     62 H           2.5746    8.1836   -1.0983 H       1  UNL1        0.0000
     63 C           5.8673    5.9041    3.8258 C.3     1  UNL1        0.0000
     64 H           5.8488    6.3441    2.8328 H       1  UNL1        0.0000
     65 H           6.6470    6.4066    4.3905 H       1  UNL1        0.0000
     66 H           4.9227    6.1431    4.3044 H       1  UNL1        0.0000
     67 C           7.5766    3.7065    6.6255 C.3     1  UNL1        0.0000
     68 H           8.2372    3.0594    6.0553 H       1  UNL1        0.0000
     69 H           7.8953    3.7102    7.6652 H       1  UNL1        0.0000
     70 H           7.6579    4.7148    6.2294 H       1  UNL1        0.0000
     71 C           8.0133    3.8469    3.1766 C.3     1  UNL1        0.0000
     72 H           8.6706    4.5225    3.7142 H       1  UNL1        0.0000
     73 H           8.1082    4.0783    2.1189 H       1  UNL1        0.0000
     74 H           8.3960    2.8414    3.3229 H       1  UNL1        0.0000
     75 C           6.0233    1.8239    7.1659 C.3     1  UNL1        0.0000
     76 H           5.0248    1.4222    6.9942 H       1  UNL1        0.0000
     77 H           6.2062    1.8902    8.2357 H       1  UNL1        0.0000
     78 H           6.7548    1.1488    6.7282 H       1  UNL1        0.0000
@<TRIPOS>BOND
     1    53    51    1
     2    52    51    1
     3    60    59    1
     4    61    59    1
     5    51    54    1
     6    51    41    1
     7    59    62    1
     8    59    19    1
     9    20    19    1
    10    42    41    1
    11    44    43    1
    12    19    43    1
    13    19     2    1
    14    41    55    1
    15    41     2    1
    16    56    55    1
    17    43    46    1
    18    43    45    1
    19    34    33    1
    20    55    57    1
    21    55    58    1
    22     2    33    1
    23    24    21    1
    24    33    35    1
    25    33     7    1
    26    13    11    1
    27    22    21    1
    28    38    36    1
    29    18    16    1
    30    12    11    1
    31    21    23    1
    32    21    14    1
    33     9     7    1
    34    11    16    1
    35    11     1    1
    36    37    36    1
    37     7     8    1
    38     7     4    1
    39    16    17    1
    40    16     4    1
    41    36    14    1
    42    36    39    1
    43    73    71    1
    44    14     1    1
    45    14    15    1
    46     4     3    1
    47    64    63    1
    48     6     5    1
    49     1     5    1
    50    71    74    1
    51    71    72    1
    52    71     3    1
    53    32    29    1
    54     5    29    1
    55     5    25    1
    56     3    63    1
    57     3    10    1
    58    63    66    1
    59    63    65    1
    60    29    31    1
    61    29    30    1
    62    27    25    1
    63    25    26    1
    64    25    28    1
    65    10    40    1
    66    68    67    1
    67    70    67    1
    68    40    67    1
    69    40    75    1
    70    40    47    1
    71    67    69    1
    72    78    75    1
    73    49    47    1
    74    76    75    1
    75    48    47    1
    76    75    77    1
    77    47    50    1
