@<TRIPOS>MOLECULE
1,4,5,6,7,8,14,15,16,17
 21 22 0 0 0
SMALL
GASTEIGER

@<TRIPOS>ATOM
      1 SI          7.8027    0.0000    2.0250 Si      1  UNL1        0.0000
      2 CL          6.8440    1.6794    2.6401 Cl      1  UNL1        0.0000
      3 C           9.6007    0.0000    2.5811 C.3     1  UNL1        0.0000
      4 C          10.4035    1.1429    2.2547 C.2     1  UNL1        0.0000
      5 C          11.6556    0.7077    1.7910 C.2     1  UNL1        0.0000
      6 C           8.0466    0.0000    0.1588 C.3     1  UNL1        0.0000
      7 C           8.6781   -1.1429   -0.4348 C.2     1  UNL1        0.0000
      8 C           9.6213   -0.7077   -1.3799 C.2     1  UNL1        0.0000
      9 H          10.0982    2.1649    2.3818 H       1  UNL1        0.0000
     10 H          12.4820    1.3375    1.5155 H       1  UNL1        0.0000
     11 H           8.4349   -2.1649   -0.2107 H       1  UNL1        0.0000
     12 H          10.2170   -1.3374   -2.0156 H       1  UNL1        0.0000
     13 CL          6.8440   -1.6794    2.6401 Cl      1  UNL1        0.0000
     14 C          10.4035   -1.1429    2.2547 C.2     1  UNL1        0.0000
     15 C          11.6556   -0.7077    1.7910 C.2     1  UNL1        0.0000
     16 C           8.6781    1.1429   -0.4348 C.2     1  UNL1        0.0000
     17 C           9.6213    0.7077   -1.3799 C.2     1  UNL1        0.0000
     18 H          10.2170    1.3374   -2.0156 H       1  UNL1        0.0000
     19 H           8.4349    2.1649   -0.2107 H       1  UNL1        0.0000
     20 H          10.0982   -2.1649    2.3818 H       1  UNL1        0.0000
     21 H          12.4820   -1.3375    1.5155 H       1  UNL1        0.0000
@<TRIPOS>BOND
     1    18    17    1
     2    12     8    1
     3    17     8    1
     4    17    16    2
     5     8     7    2
     6    16    19    1
     7    16     6    1
     8     7    11    1
     9     7     6    1
    10     6     1    1
    11    21    15    1
    12    10     5    1
    13    15     5    1
    14    15    14    2
    15     5     4    2
    16     1     3    1
    17     1    13    1
    18     1     2    1
    19    14    20    1
    20    14     3    1
    21     4     9    1
    22     4     3    1
