@<TRIPOS>MOLECULE
3,4,5,14
 38 38 0 0 0
SMALL
GASTEIGER

@<TRIPOS>ATOM
      1 SI          0.8600   14.3065   37.7758 Si      1  UNL1        0.0000
      2 SI         -0.4579    9.3375   35.7559 Si      1  UNL1        0.0000
      3 N           1.5231   12.8893   36.9996 N.pl3   1  UNL1        0.0000
      4 N           0.7176   10.5360   36.1830 N.pl3   1  UNL1        0.0000
      5 C           2.0137   11.8040   37.6983 C.ar    1  UNL1        0.0000
      6 C           2.8938   11.8855   38.7736 C.ar    1  UNL1        0.0000
      7 H           3.2400   12.8574   39.0887 H       1  UNL1        0.0000
      8 C           3.3401   10.7398   39.4073 C.ar    1  UNL1        0.0000
      9 H           4.0229   10.8202   40.2399 H       1  UNL1        0.0000
     10 C           2.9251    9.4920   38.9672 C.ar    1  UNL1        0.0000
     11 H           3.2844    8.5985   39.4560 H       1  UNL1        0.0000
     12 C           2.0606    9.3819   37.8932 C.ar    1  UNL1        0.0000
     13 H           1.7578    8.4108   37.5333 H       1  UNL1        0.0000
     14 C           1.5821   10.5207   37.2495 C.ar    1  UNL1        0.0000
     15 C          -0.9940   14.2856   37.3095 C.3     1  UNL1        0.0000
     16 H          -1.1058   14.3673   36.2314 H       1  UNL1        0.0000
     17 H          -1.5312   15.1116   37.7625 H       1  UNL1        0.0000
     18 H          -1.4694   13.3614   37.6266 H       1  UNL1        0.0000
     19 C           1.7486   15.8377   37.0606 C.3     1  UNL1        0.0000
     20 H           2.8083   15.8546   37.2993 H       1  UNL1        0.0000
     21 H           1.3104   16.7496   37.4508 H       1  UNL1        0.0000
     22 H           1.6408   15.8556   35.9799 H       1  UNL1        0.0000
     23 C           0.9797   14.2957   39.6847 C.3     1  UNL1        0.0000
     24 H           0.8283   13.2998   40.0878 H       1  UNL1        0.0000
     25 H           0.2179   14.9440   40.1048 H       1  UNL1        0.0000
     26 H           1.9402   14.6546   40.0382 H       1  UNL1        0.0000
     27 C          -2.0489   10.3424   35.3999 C.3     1  UNL1        0.0000
     28 H          -2.7010   10.3637   36.2675 H       1  UNL1        0.0000
     29 H          -2.6165    9.9146   34.5800 H       1  UNL1        0.0000
     30 H          -1.8036   11.3724   35.1495 H       1  UNL1        0.0000
     31 C           0.1723    8.4481   34.1744 C.3     1  UNL1        0.0000
     32 H           0.6719    9.1496   33.5089 H       1  UNL1        0.0000
     33 H          -0.6440    7.9876   33.6267 H       1  UNL1        0.0000
     34 H           0.8834    7.6627   34.4153 H       1  UNL1        0.0000
     35 C          -0.8802    8.0462   37.0982 C.3     1  UNL1        0.0000
     36 H          -0.2151    7.1898   37.0684 H       1  UNL1        0.0000
     37 H          -1.8903    7.6772   36.9529 H       1  UNL1        0.0000
     38 H          -0.8232    8.4775   38.0922 H       1  UNL1        0.0000
@<TRIPOS>BOND
     1    32    31    1
     2    33    31    1
     3    31    34    1
     4    31     2    1
     5    29    27    1
     6    30    27    1
     7    27     2    1
     8    27    28    1
     9     2     4    1
    10     2    35    1
    11    22    19    1
    12     4    14    1
    13    16    15    1
    14    37    35    1
    15     3     5    1
    16     3     1    1
    17    19    20    1
    18    19    21    1
    19    19     1    1
    20    36    35    1
    21    35    38    1
    22    14     5   ar
    23    14    12   ar
    24    15    18    1
    25    15    17    1
    26    15     1    1
    27    13    12    1
    28     5     6   ar
    29     1    23    1
    30    12    10   ar
    31     6     7    1
    32     6     8   ar
    33    10     8   ar
    34    10    11    1
    35     8     9    1
    36    23    26    1
    37    23    24    1
    38    23    25    1
