@<TRIPOS>MOLECULE
3,4,5,14
 38 38 0 0 0
SMALL
GASTEIGER

@<TRIPOS>ATOM
      1 SI         -5.2972    3.2403   12.4325 Si      1  UNL1        0.0000
      2 SI         -3.5877   -1.6037   14.2504 Si      1  UNL1        0.0000
      3 N          -4.3535    1.8603   11.9049 N.pl3   1  UNL1        0.0000
      4 N          -3.4989   -0.3274   13.0875 N.pl3   1  UNL1        0.0000
      5 C          -3.0126    1.8304   12.2710 C.ar    1  UNL1        0.0000
      6 C          -2.1280    2.8783   12.0470 C.ar    1  UNL1        0.0000
      7 H          -2.4805    3.7494   11.5138 H       1  UNL1        0.0000
      8 C          -0.8177    2.7986   12.4853 C.ar    1  UNL1        0.0000
      9 H          -0.1401    3.6198   12.3060 H       1  UNL1        0.0000
     10 C          -0.3785    1.6641   13.1495 C.ar    1  UNL1        0.0000
     11 H           0.6437    1.6019   13.4932 H       1  UNL1        0.0000
     12 C          -1.2357    0.6009   13.3671 C.ar    1  UNL1        0.0000
     13 H          -0.8833   -0.2916   13.8588 H       1  UNL1        0.0000
     14 C          -2.5596    0.6574   12.9362 C.ar    1  UNL1        0.0000
     15 C          -6.8486    2.5067   13.2715 C.3     1  UNL1        0.0000
     16 H          -7.3553    1.7877   12.6337 H       1  UNL1        0.0000
     17 H          -7.5558    3.2876   13.5299 H       1  UNL1        0.0000
     18 H          -6.5741    1.9923   14.1887 H       1  UNL1        0.0000
     19 C          -5.6752    4.4015   10.9519 C.3     1  UNL1        0.0000
     20 H          -4.9991    5.2515   10.9411 H       1  UNL1        0.0000
     21 H          -6.6839    4.7929   11.0216 H       1  UNL1        0.0000
     22 H          -5.5809    3.8952    9.9960 H       1  UNL1        0.0000
     23 C          -4.3927    4.2374   13.7917 C.3     1  UNL1        0.0000
     24 H          -3.9010    3.5743   14.4968 H       1  UNL1        0.0000
     25 H          -5.0973    4.8496   14.3454 H       1  UNL1        0.0000
     26 H          -3.6347    4.8980   13.3861 H       1  UNL1        0.0000
     27 C          -5.3007   -1.3780   15.0818 C.3     1  UNL1        0.0000
     28 H          -5.2314   -0.7400   15.9580 H       1  UNL1        0.0000
     29 H          -5.7158   -2.3270   15.4050 H       1  UNL1        0.0000
     30 H          -6.0036   -0.9154   14.3920 H       1  UNL1        0.0000
     31 C          -2.2852   -1.6496   15.6453 C.3     1  UNL1        0.0000
     32 H          -1.3399   -2.0648   15.3122 H       1  UNL1        0.0000
     33 H          -2.6446   -2.2726   16.4580 H       1  UNL1        0.0000
     34 H          -2.0949   -0.6597   16.0463 H       1  UNL1        0.0000
     35 C          -3.5125   -3.2445   13.2586 C.3     1  UNL1        0.0000
     36 H          -4.0098   -3.1402   12.2949 H       1  UNL1        0.0000
     37 H          -3.9895   -4.0568   13.7983 H       1  UNL1        0.0000
     38 H          -2.4867   -3.5443   13.0642 H       1  UNL1        0.0000
@<TRIPOS>BOND
     1    22    19    1
     2    20    19    1
     3    19    21    1
     4    19     1    1
     5     7     6    1
     6     3     5    1
     7     3     1    1
     8     6     5   ar
     9     6     8   ar
    10     5    14   ar
    11    36    35    1
    12     9     8    1
    13     1    15    1
    14     1    23    1
    15     8    10   ar
    16    16    15    1
    17    14     4    1
    18    14    12   ar
    19    38    35    1
    20     4     2    1
    21    10    12   ar
    22    10    11    1
    23    35    37    1
    24    35     2    1
    25    15    17    1
    26    15    18    1
    27    12    13    1
    28    26    23    1
    29    23    25    1
    30    23    24    1
    31     2    27    1
    32     2    31    1
    33    30    27    1
    34    27    29    1
    35    27    28    1
    36    32    31    1
    37    31    34    1
    38    31    33    1
