@<TRIPOS>MOLECULE
3,4,5,8
 78 81 0 0 0
SMALL
GASTEIGER

@<TRIPOS>ATOM
      1 SI          2.4443    5.8123    2.7635 Si      1  UNL1        0.0000
      2 SI          5.5512    1.6601    6.9169 Si      1  UNL1        0.0000
      3 N           3.0230    4.9557    4.1668 N.pl3   1  UNL1        0.0000
      4 N           5.4653    3.0899    5.9458 N.pl3   1  UNL1        0.0000
      5 C           2.6458    3.6017    4.1761 C.ar    1  UNL1        0.0000
      6 C           3.5603    2.5943    3.8680 C.ar    1  UNL1        0.0000
      7 C           4.9927    2.8927    3.5626 C.ar    1  UNL1        0.0000
      8 C           5.9036    3.0122    4.6166 C.ar    1  UNL1        0.0000
      9 C           7.2931    2.9811    4.3332 C.ar    1  UNL1        0.0000
     10 C           7.7547    2.9229    3.0520 C.ar    1  UNL1        0.0000
     11 C           6.8595    2.8954    1.9611 C.ar    1  UNL1        0.0000
     12 C           7.3154    2.8806    0.6282 C.ar    1  UNL1        0.0000
     13 C           6.4332    2.7985   -0.4127 C.ar    1  UNL1        0.0000
     14 C           5.0570    2.6996   -0.1587 C.ar    1  UNL1        0.0000
     15 C           4.5841    2.7157    1.1238 C.ar    1  UNL1        0.0000
     16 C           5.4635    2.8423    2.2210 C.ar    1  UNL1        0.0000
     17 C           3.1389    1.2360    3.8194 C.ar    1  UNL1        0.0000
     18 C           4.0135    0.1891    3.4530 C.ar    1  UNL1        0.0000
     19 C           3.5845   -1.1086    3.4205 C.ar    1  UNL1        0.0000
     20 C           2.2609   -1.4323    3.7514 C.ar    1  UNL1        0.0000
     21 C           1.3828   -0.4416    4.0921 C.ar    1  UNL1        0.0000
     22 C           1.7919    0.9056    4.1271 C.ar    1  UNL1        0.0000
     23 C           0.8911    1.9444    4.4485 C.ar    1  UNL1        0.0000
     24 C           1.2998    3.2432    4.4603 C.ar    1  UNL1        0.0000
     25 C           1.3084    4.6874    1.7036 C.3     1  UNL1        0.0000
     26 C           3.9358    6.2413    1.6298 C.3     1  UNL1        0.0000
     27 C           1.4037    7.4280    3.0675 C.3     1  UNL1        0.0000
     28 C           1.2643    8.1546    1.7290 C.3     1  UNL1        0.0000
     29 C          -0.0052    7.1101    3.5761 C.3     1  UNL1        0.0000
     30 C           2.0709    8.3909    4.0486 C.3     1  UNL1        0.0000
     31 C           3.7718    0.9778    7.2013 C.3     1  UNL1        0.0000
     32 C           6.5605    0.2593    6.0979 C.3     1  UNL1        0.0000
     33 C           6.4036    2.1149    8.5998 C.3     1  UNL1        0.0000
     34 C           5.6195    3.2138    9.3190 C.3     1  UNL1        0.0000
     35 C           6.4683    0.8898    9.5095 C.3     1  UNL1        0.0000
     36 C           7.8285    2.6141    8.3525 C.3     1  UNL1        0.0000
     37 H           7.9764    2.9876    5.1689 H       1  UNL1        0.0000
     38 H           8.8150    2.9035    2.8547 H       1  UNL1        0.0000
     39 H           8.3770    2.9468    0.4470 H       1  UNL1        0.0000
     40 H           6.7894    2.8016   -1.4312 H       1  UNL1        0.0000
     41 H           4.3691    2.6118   -0.9862 H       1  UNL1        0.0000
     42 H           3.5263    2.6334    1.3190 H       1  UNL1        0.0000
     43 H           5.0297    0.4305    3.1817 H       1  UNL1        0.0000
     44 H           4.2668   -1.8957    3.1360 H       1  UNL1        0.0000
     45 H           1.9411   -2.4629    3.7260 H       1  UNL1        0.0000
     46 H           0.3566   -0.6751    4.3357 H       1  UNL1        0.0000
     47 H          -0.1355    1.6911    4.6705 H       1  UNL1        0.0000
     48 H           0.6003    4.0415    4.6692 H       1  UNL1        0.0000
     49 H           1.7828    3.7333    1.5041 H       1  UNL1        0.0000
     50 H           1.0943    5.1479    0.7447 H       1  UNL1        0.0000
     51 H           0.3603    4.4726    2.1845 H       1  UNL1        0.0000
     52 H           3.5953    6.3304    0.6040 H       1  UNL1        0.0000
     53 H           4.4047    7.1866    1.8822 H       1  UNL1        0.0000
     54 H           4.6924    5.4604    1.6443 H       1  UNL1        0.0000
     55 H           0.7771    7.5261    0.9892 H       1  UNL1        0.0000
     56 H           2.2359    8.4481    1.3431 H       1  UNL1        0.0000
     57 H           0.6651    9.0560    1.8528 H       1  UNL1        0.0000
     58 H          -0.5559    6.5246    2.8452 H       1  UNL1        0.0000
     59 H          -0.5590    8.0325    3.7501 H       1  UNL1        0.0000
     60 H           0.0206    6.5545    4.5105 H       1  UNL1        0.0000
     61 H           3.0076    8.7594    3.6395 H       1  UNL1        0.0000
     62 H           2.2501    7.9079    5.0070 H       1  UNL1        0.0000
     63 H           1.4341    9.2590    4.2188 H       1  UNL1        0.0000
     64 H           3.7026   -0.0552    6.8769 H       1  UNL1        0.0000
     65 H           3.4800    1.0023    8.2457 H       1  UNL1        0.0000
     66 H           3.0387    1.5469    6.6321 H       1  UNL1        0.0000
     67 H           6.6072   -0.6141    6.7394 H       1  UNL1        0.0000
     68 H           6.0952   -0.0456    5.1672 H       1  UNL1        0.0000
     69 H           7.5775    0.5595    5.8713 H       1  UNL1        0.0000
     70 H           4.6722    2.8221    9.6843 H       1  UNL1        0.0000
     71 H           6.1780    3.5822   10.1803 H       1  UNL1        0.0000
     72 H           5.4211    4.0488    8.6384 H       1  UNL1        0.0000
     73 H           6.9039    1.1519   10.4732 H       1  UNL1        0.0000
     74 H           5.4763    0.4817    9.6842 H       1  UNL1        0.0000
     75 H           7.0802    0.1114    9.0637 H       1  UNL1        0.0000
     76 H           8.4337    1.8341    7.8988 H       1  UNL1        0.0000
     77 H           8.3033    2.9030    9.2901 H       1  UNL1        0.0000
     78 H           7.8225    3.4752    7.6886 H       1  UNL1        0.0000
@<TRIPOS>BOND
     1    40    13    1
     2    41    14    1
     3    13    14   ar
     4    13    12   ar
     5    14    15   ar
     6    39    12    1
     7    52    26    1
     8    12    11   ar
     9    50    25    1
    10    55    28    1
    11    15    42    1
    12    15    16   ar
    13    56    28    1
    14    49    25    1
    15    26    54    1
    16    26    53    1
    17    26     1    1
    18    25    51    1
    19    25     1    1
    20    28    57    1
    21    28    27    1
    22    11    16   ar
    23    11    10   ar
    24    16     7   ar
    25     1    27    1
    26     1     3    1
    27    58    29    1
    28    38    10    1
    29    10     9   ar
    30    27    29    1
    31    27    30    1
    32    44    19    1
    33    43    18    1
    34    19    18   ar
    35    19    20   ar
    36    18    17   ar
    37     7     6    1
    38     7     8   ar
    39    29    59    1
    40    29    60    1
    41    61    30    1
    42    45    20    1
    43    20    21   ar
    44    17     6   ar
    45    17    22   ar
    46     6     5   ar
    47    30    63    1
    48    30    62    1
    49    21    22   ar
    50    21    46    1
    51    22    23   ar
    52     3     5    1
    53     5    24   ar
    54     9     8   ar
    55     9    37    1
    56    23    24   ar
    57    23    47    1
    58    24    48    1
    59     8     4    1
    60    68    32    1
    61    69    32    1
    62     4     2    1
    63    32    67    1
    64    32     2    1
    65    66    31    1
    66    64    31    1
    67     2    31    1
    68     2    33    1
    69    31    65    1
    70    78    36    1
    71    76    36    1
    72    36    33    1
    73    36    77    1
    74    33    34    1
    75    33    35    1
    76    72    34    1
    77    75    35    1
    78    34    70    1
    79    34    71    1
    80    35    74    1
    81    35    73    1
