@<TRIPOS>MOLECULE
1,2,3,6
 30 31 0 0 0
SMALL
GASTEIGER

@<TRIPOS>ATOM
      1 N           3.7212    8.6175    4.1077 N.pl3   1  UNL1       -0.2490
      2 N           4.8205    6.7172    2.4481 N.pl3   1  UNL1       -0.2490
      3 C           5.1599    8.4177    4.2012 C.3     1  UNL1        0.0488
      4 H           5.5097    8.5397    5.2382 H       1  UNL1        0.0498
      5 H           5.7055    9.1412    3.5625 H       1  UNL1        0.0498
      6 C           5.4415    6.9793    3.7417 C.3     1  UNL1        0.0488
      7 H           6.5206    6.7777    3.7209 H       1  UNL1        0.0498
      8 H           4.9938    6.2991    4.4816 H       1  UNL1        0.0498
      9 C           3.1939    9.6653    4.8157 C.ar    1  UNL1        0.0478
     10 C           3.9467   10.6448    5.4882 C.ar    1  UNL1       -0.0391
     11 H           5.0243   10.6464    5.4284 H       1  UNL1        0.0637
     12 C           3.3216   11.6366    6.2179 C.ar    1  UNL1       -0.0600
     13 H           3.9274   12.3777    6.7202 H       1  UNL1        0.0618
     14 C           1.9423   11.6964    6.3125 C.ar    1  UNL1       -0.0616
     15 H           1.4651   12.4703    6.8940 H       1  UNL1        0.0618
     16 C           1.1827   10.7466    5.6449 C.ar    1  UNL1       -0.0600
     17 H           0.1039   10.7812    5.7067 H       1  UNL1        0.0618
     18 C           1.7917    9.7584    4.9039 C.ar    1  UNL1       -0.0391
     19 H           1.2031    9.0088    4.3828 H       1  UNL1        0.0637
     20 C           5.6458    6.7649    1.3473 C.ar    1  UNL1        0.0478
     21 C           5.2319    6.0851    0.1821 C.ar    1  UNL1       -0.0391
     22 H           4.2955    5.5418    0.2150 H       1  UNL1        0.0637
     23 C           6.0058    6.0722   -0.9582 C.ar    1  UNL1       -0.0600
     24 H           5.6650    5.5302   -1.8297 H       1  UNL1        0.0618
     25 C           7.2238    6.7360   -0.9937 C.ar    1  UNL1       -0.0616
     26 H           7.8280    6.7276   -1.8876 H       1  UNL1        0.0618
     27 C           7.6555    7.4009    0.1413 C.ar    1  UNL1       -0.0600
     28 H           8.6028    7.9219    0.1298 H       1  UNL1        0.0618
     29 C           6.8936    7.4165    1.2940 C.ar    1  UNL1       -0.0391
     30 H           7.2681    7.9556    2.1525 H       1  UNL1        0.0637
@<TRIPOS>BOND
     1    26    25    1
     2    24    23    1
     3    25    23   ar
     4    25    27   ar
     5    23    21   ar
     6    28    27    1
     7    27    29   ar
     8    21    22    1
     9    21    20   ar
    10    29    20   ar
    11    29    30    1
    12    20     2    1
    13     2     6    1
    14     5     3    1
    15     7     6    1
    16     6     3    1
    17     6     8    1
    18     1     3    1
    19     1     9    1
    20     3     4    1
    21    19    18    1
    22     9    18   ar
    23     9    10   ar
    24    18    16   ar
    25    11    10    1
    26    10    12   ar
    27    16    17    1
    28    16    14   ar
    29    12    14   ar
    30    12    13    1
    31    14    15    1
