@<TRIPOS>MOLECULE
1,6,8,13
 40 40 0 0 0
SMALL
GASTEIGER

@<TRIPOS>ATOM
      1 N           0.3087   15.5954   16.1458 N.pl3   1  UNL1        0.0000
      2 C          -0.7751   16.3182   15.8447 C.3     1  UNL1        0.0000
      3 C          -0.8139   17.6930   15.9035 C.2     1  UNL1        0.0000
      4 C           0.3652   18.3741   16.2315 C.2     1  UNL1        0.0000
      5 C           1.4742   17.6522   16.5773 C.2     1  UNL1        0.0000
      6 C           1.4209   16.2352   16.6035 C.2     1  UNL1        0.0000
      7 C           2.4763   15.4903   17.1857 C.2     1  UNL1        0.0000
      8 C           2.3068   14.2297   17.7506 C.2     1  UNL1        0.0000
      9 C           3.4251   13.6883   18.6575 C.3     1  UNL1        0.0000
     10 C           3.2131   14.2454   20.0709 C.3     1  UNL1        0.0000
     11 C           4.8223   14.1218   18.1901 C.3     1  UNL1        0.0000
     12 C           3.3976   12.1579   18.6616 C.3     1  UNL1        0.0000
     13 N           1.1721   13.5594   17.5565 N.pl3   1  UNL1        0.0000
     14 SI         -0.0414   12.8526   18.5695 Si      1  UNL1        0.0000
     15 C           0.2196   12.5140   20.4493 C.3     1  UNL1        0.0000
     16 C          -0.5432   11.1350   17.8886 C.3     1  UNL1        0.0000
     17 C          -1.4636   14.1512   18.6308 C.3     1  UNL1        0.0000
     18 H          -1.6494   15.7421   15.5552 H       1  UNL1        0.0000
     19 H          -1.7203   18.2315   15.6796 H       1  UNL1        0.0000
     20 H           0.3878   19.4539   16.2283 H       1  UNL1        0.0000
     21 H           2.3915   18.1414   16.8674 H       1  UNL1        0.0000
     22 H           3.3836   16.0399   17.3803 H       1  UNL1        0.0000
     23 H           2.2386   13.9694   20.4517 H       1  UNL1        0.0000
     24 H           3.2831   15.3314   20.0611 H       1  UNL1        0.0000
     25 H           3.9760   13.8553   20.7418 H       1  UNL1        0.0000
     26 H           4.9952   15.1837   18.3445 H       1  UNL1        0.0000
     27 H           4.9731   13.8915   17.1405 H       1  UNL1        0.0000
     28 H           5.5697   13.5846   18.7708 H       1  UNL1        0.0000
     29 H           2.4555   11.7800   19.0395 H       1  UNL1        0.0000
     30 H           4.1995   11.7721   19.2878 H       1  UNL1        0.0000
     31 H           3.5260   11.7751   17.6507 H       1  UNL1        0.0000
     32 H           0.2766   13.4346   21.0215 H       1  UNL1        0.0000
     33 H           1.0875   11.9111   20.6905 H       1  UNL1        0.0000
     34 H          -0.6496   11.9748   20.8133 H       1  UNL1        0.0000
     35 H          -0.9154   11.1808   16.8682 H       1  UNL1        0.0000
     36 H          -1.3341   10.7126   18.5011 H       1  UNL1        0.0000
     37 H           0.2921   10.4389   17.9027 H       1  UNL1        0.0000
     38 H          -1.0634   15.1596   18.7180 H       1  UNL1        0.0000
     39 H          -2.1037   13.9782   19.4899 H       1  UNL1        0.0000
     40 H          -2.0885   14.1156   17.7455 H       1  UNL1        0.0000
@<TRIPOS>BOND
     1    18     2    1
     2    19     3    1
     3     2     3    1
     4     2     1    1
     5     3     4    2
     6     1     6    1
     7    20     4    1
     8     4     5    1
     9     5     6    2
    10     5    21    1
    11     6     7    1
    12    35    16    1
    13    27    11    1
    14     7    22    1
    15     7     8    2
    16    13     8    1
    17    13    14    1
    18    31    12    1
    19    40    17    1
    20     8     9    1
    21    16    37    1
    22    16    36    1
    23    16    14    1
    24    11    26    1
    25    11     9    1
    26    11    28    1
    27    14    17    1
    28    14    15    1
    29    17    38    1
    30    17    39    1
    31     9    12    1
    32     9    10    1
    33    12    29    1
    34    12    30    1
    35    24    10    1
    36    10    23    1
    37    10    25    1
    38    15    33    1
    39    15    34    1
    40    15    32    1
