@<TRIPOS>MOLECULE
1,6,8,13
 40 40 0 0 0
SMALL
GASTEIGER

@<TRIPOS>ATOM
      1 N           2.6239   14.2408   14.5414 N.pl3   1  UNL1        0.0000
      2 C           3.8433   13.7708   14.8244 C.3     1  UNL1        0.0000
      3 C           5.0016   14.4849   14.6162 C.2     1  UNL1        0.0000
      4 C           4.8921   15.7995   14.1455 C.2     1  UNL1        0.0000
      5 C           3.6568   16.2859   13.8168 C.2     1  UNL1        0.0000
      6 C           2.5095   15.4630   13.9508 C.2     1  UNL1        0.0000
      7 C           1.2709   15.8659   13.3931 C.2     1  UNL1        0.0000
      8 C           0.2867   14.9722   12.9812 C.2     1  UNL1        0.0000
      9 C          -0.8372   15.5026   12.0747 C.3     1  UNL1        0.0000
     10 C          -1.2281   16.9496   12.4088 C.3     1  UNL1        0.0000
     11 C          -0.3397   15.4774   10.6239 C.3     1  UNL1        0.0000
     12 C          -2.0907   14.6398   12.2396 C.3     1  UNL1        0.0000
     13 N           0.3733   13.6853   13.3144 N.pl3   1  UNL1        0.0000
     14 SI          0.4021   12.1804   12.4581 Si      1  UNL1        0.0000
     15 C          -0.7049   10.8988   13.3511 C.3     1  UNL1        0.0000
     16 C          -0.1325   12.0049   10.6142 C.3     1  UNL1        0.0000
     17 C           2.2656   11.7053   12.3397 C.3     1  UNL1        0.0000
     18 H           3.8682   12.7621   15.2270 H       1  UNL1        0.0000
     19 H           5.9650   14.0527   14.8323 H       1  UNL1        0.0000
     20 H           5.7754   16.4099   14.0280 H       1  UNL1        0.0000
     21 H           3.5359   17.2826   13.4205 H       1  UNL1        0.0000
     22 H           1.2108   16.8980   13.0860 H       1  UNL1        0.0000
     23 H          -0.4523   17.6587   12.1314 H       1  UNL1        0.0000
     24 H          -1.4439   17.0627   13.4662 H       1  UNL1        0.0000
     25 H          -2.1219   17.2114   11.8456 H       1  UNL1        0.0000
     26 H           0.5216   16.1330   10.5106 H       1  UNL1        0.0000
     27 H          -1.1268   15.8210    9.9556 H       1  UNL1        0.0000
     28 H          -0.0475   14.4766   10.3341 H       1  UNL1        0.0000
     29 H          -2.4192   14.6452   13.2773 H       1  UNL1        0.0000
     30 H          -1.9025   13.6107   11.9591 H       1  UNL1        0.0000
     31 H          -2.8938   15.0255   11.6149 H       1  UNL1        0.0000
     32 H          -0.3998   10.7258   14.3801 H       1  UNL1        0.0000
     33 H          -0.6535    9.9446   12.8353 H       1  UNL1        0.0000
     34 H          -1.7467   11.2102   13.3652 H       1  UNL1        0.0000
     35 H           0.5661   12.4938    9.9428 H       1  UNL1        0.0000
     36 H          -1.1288   12.3675   10.3889 H       1  UNL1        0.0000
     37 H          -0.1175   10.9486   10.3636 H       1  UNL1        0.0000
     38 H           2.8752   12.5807   12.1231 H       1  UNL1        0.0000
     39 H           2.4284   10.9882   11.5416 H       1  UNL1        0.0000
     40 H           2.6337   11.2614   13.2578 H       1  UNL1        0.0000
@<TRIPOS>BOND
     1    35    16    1
     2    27    11    1
     3    28    11    1
     4    37    16    1
     5    36    16    1
     6    26    11    1
     7    16    14    1
     8    11     9    1
     9    39    17    1
    10    31    12    1
    11    25    10    1
    12    30    12    1
    13     9    12    1
    14     9    10    1
    15     9     8    1
    16    38    17    1
    17    23    10    1
    18    12    29    1
    19    17    14    1
    20    17    40    1
    21    10    24    1
    22    14    13    1
    23    14    15    1
    24    33    15    1
    25     8    13    1
    26     8     7    2
    27    22     7    1
    28    15    34    1
    29    15    32    1
    30     7     6    1
    31    21     5    1
    32     5     6    2
    33     5     4    1
    34     6     1    1
    35    20     4    1
    36     4     3    2
    37     1     2    1
    38     3     2    1
    39     3    19    1
    40     2    18    1
