@<TRIPOS>MOLECULE
2,3,6,7
 31 31 0 0 0
SMALL
GASTEIGER

@<TRIPOS>ATOM
      1 SI         -3.7065    0.7689   12.5686 Si      1  UNL1        0.0000
      2 N          -3.4135    1.6419   11.0367 N.3     1  UNL1        0.0000
      3 N          -2.1468    1.5511    8.1763 N.3     1  UNL1        0.0000
      4 H          -1.5850    0.6990    8.1691 H       1  UNL1        0.0000
      5 H          -2.4181    1.7701    7.2189 H       1  UNL1        0.0000
      6 C          -5.2188   -0.1805   11.9847 C.2     1  UNL1        0.0000
      7 C          -6.0908    0.4516   10.9635 C.3     1  UNL1        0.0000
      8 H          -6.5563    1.4114   11.2222 H       1  UNL1        0.0000
      9 C          -6.9830   -0.6121   10.5300 C.2     1  UNL1        0.0000
     10 H          -7.7957   -0.4702    9.8343 H       1  UNL1        0.0000
     11 C          -6.6392   -1.7675   11.1623 C.2     1  UNL1        0.0000
     12 H          -7.0927   -2.7329   11.0201 H       1  UNL1        0.0000
     13 C          -5.5481   -1.5054   12.0430 C.2     1  UNL1        0.0000
     14 H          -5.0588   -2.2495   12.6475 H       1  UNL1        0.0000
     15 C          -2.4868    2.7449   11.0877 C.3     1  UNL1        0.0000
     16 H          -2.1949    2.9701   12.1180 H       1  UNL1        0.0000
     17 H          -2.9886    3.6305   10.6693 H       1  UNL1        0.0000
     18 C          -1.2118    2.4622   10.2725 C.3     1  UNL1        0.0000
     19 H          -0.4282    3.1400   10.6141 H       1  UNL1        0.0000
     20 H          -0.8971    1.4337   10.4717 H       1  UNL1        0.0000
     21 C          -1.3923    2.6559    8.7651 C.3     1  UNL1        0.0000
     22 H          -1.9494    3.5795    8.5823 H       1  UNL1        0.0000
     23 H          -0.4018    2.7463    8.2936 H       1  UNL1        0.0000
     24 C          -2.1987   -0.3183   12.9952 C.3     1  UNL1        0.0000
     25 H          -1.9396   -0.9603   12.1576 H       1  UNL1        0.0000
     26 H          -2.4173   -0.9512   13.8480 H       1  UNL1        0.0000
     27 H          -1.3300    0.2838   13.2441 H       1  UNL1        0.0000
     28 C          -4.0812    2.0267   13.9561 C.3     1  UNL1        0.0000
     29 H          -4.7193    2.8318   13.6046 H       1  UNL1        0.0000
     30 H          -3.1726    2.4679   14.3513 H       1  UNL1        0.0000
     31 H          -4.5877    1.5362   14.7797 H       1  UNL1        0.0000
@<TRIPOS>BOND
     1     5     3    1
     2     4     3    1
     3     3    21    1
     4    23    21    1
     5    22    21    1
     6    21    18    1
     7    10     9    1
     8    18    20    1
     9    18    19    1
    10    18    15    1
    11     9     7    1
    12     9    11    2
    13    17    15    1
    14     7     8    1
    15     7     6    1
    16    12    11    1
    17     2    15    1
    18     2     1    1
    19    15    16    1
    20    11    13    1
    21     6    13    2
    22     6     1    1
    23    13    14    1
    24    25    24    1
    25     1    24    1
    26     1    28    1
    27    24    27    1
    28    24    26    1
    29    29    28    1
    30    28    30    1
    31    28    31    1
