@<TRIPOS>MOLECULE
2,3,4,15
 41 42 0 0 0
SMALL
GASTEIGER

@<TRIPOS>ATOM
      1 SI          3.1377    5.0837    3.7475 Si      1  UNL1        0.0000
      2 N           2.1514    4.1126    7.7291 N.pl3   1  UNL1        0.0000
      3 N           1.9971    4.9101    5.0556 N.pl3   1  UNL1        0.0000
      4 C           2.7814    5.1787    8.2315 C.ar    1  UNL1        0.0000
      5 C           3.7503    5.0847    9.2404 C.ar    1  UNL1        0.0000
      6 C           4.5587    6.1630    9.5353 C.ar    1  UNL1        0.0000
      7 C           4.4272    7.3394    8.8207 C.ar    1  UNL1        0.0000
      8 C           3.4324    7.4851    7.8556 C.ar    1  UNL1        0.0000
      9 C           2.5590    6.4334    7.5924 C.ar    1  UNL1        0.0000
     10 C           1.3829    6.6373    6.7113 C.ar    1  UNL1        0.0000
     11 C           0.4040    7.5455    7.1421 C.ar    1  UNL1        0.0000
     12 C          -0.6483    7.8912    6.3061 C.ar    1  UNL1        0.0000
     13 C          -0.7482    7.3483    5.0393 C.ar    1  UNL1        0.0000
     14 C           0.1610    6.3908    4.6406 C.ar    1  UNL1        0.0000
     15 C           1.2028    5.9841    5.4767 C.ar    1  UNL1        0.0000
     16 C           0.4552    8.1531    8.5140 C.3     1  UNL1        0.0000
     17 C           3.3831    8.7736    7.0826 C.3     1  UNL1        0.0000
     18 C           4.8517    4.7206    4.5207 C.3     1  UNL1        0.0000
     19 C           3.0999    6.8519    3.0390 C.3     1  UNL1        0.0000
     20 C           2.7333    3.7803    2.4029 C.3     1  UNL1        0.0000
     21 H           3.8755    4.1360    9.7411 H       1  UNL1        0.0000
     22 H           5.3140    6.0781   10.3032 H       1  UNL1        0.0000
     23 H           5.0951    8.1663    9.0133 H       1  UNL1        0.0000
     24 H           4.3295    8.9185    6.5613 H       1  UNL1        0.0000
     25 H           3.2472    9.6204    7.7540 H       1  UNL1        0.0000
     26 H           2.5810    8.7703    6.3507 H       1  UNL1        0.0000
     27 H           0.9892    7.5086    9.2063 H       1  UNL1        0.0000
     28 H          -0.5553    8.3138    8.8838 H       1  UNL1        0.0000
     29 H           0.9587    9.1183    8.4918 H       1  UNL1        0.0000
     30 H          -1.3871    8.6004    6.6493 H       1  UNL1        0.0000
     31 H          -1.5466    7.6470    4.3761 H       1  UNL1        0.0000
     32 H           0.0723    5.9238    3.6698 H       1  UNL1        0.0000
     33 H           2.1588    7.0734    2.5482 H       1  UNL1        0.0000
     34 H           3.8928    6.9885    2.3118 H       1  UNL1        0.0000
     35 H           3.2384    7.5840    3.8275 H       1  UNL1        0.0000
     36 H           4.9824    5.2758    5.4475 H       1  UNL1        0.0000
     37 H           5.6624    4.9905    3.8515 H       1  UNL1        0.0000
     38 H           4.9593    3.6631    4.7548 H       1  UNL1        0.0000
     39 H           1.8054    3.9998    1.8815 H       1  UNL1        0.0000
     40 H           3.5227    3.7406    1.6591 H       1  UNL1        0.0000
     41 H           2.6430    2.7855    2.8347 H       1  UNL1        0.0000
@<TRIPOS>BOND
     1    40    20    1
     2    39    20    1
     3    34    19    1
     4    20    41    1
     5    20     1    1
     6    33    19    1
     7    19     1    1
     8    19    35    1
     9    32    14    1
    10     1    18    1
    11     1     3    1
    12    37    18    1
    13    31    13    1
    14    18    38    1
    15    18    36    1
    16    14    13   ar
    17    14    15   ar
    18    13    12   ar
    19     3    15    1
    20    15    10   ar
    21    12    30    1
    22    12    11   ar
    23    26    17    1
    24    24    17    1
    25    10    11   ar
    26    10     9    1
    27    17    25    1
    28    17     8    1
    29    11    16    1
    30     9     8   ar
    31     9     4   ar
    32     2     4    1
    33     8     7   ar
    34     4     5   ar
    35    29    16    1
    36    16    28    1
    37    16    27    1
    38     7    23    1
    39     7     6   ar
    40     5     6   ar
    41     5    21    1
    42     6    22    1
