@<TRIPOS>MOLECULE
2,3,4,11
 45 46 0 0 0
SMALL
GASTEIGER

@<TRIPOS>ATOM
      1 SI         -1.2828    2.1476   10.8122 Si      1  UNL1        0.0000
      2 N           1.5141    5.6732    9.7800 N.pl3   1  UNL1        0.0000
      3 N          -0.6233    3.3635    9.7022 N.pl3   1  UNL1        0.0000
      4 C           2.2947    4.6282   10.3230 C.ar    1  UNL1        0.0000
      5 C           3.0773    4.8754   11.4505 C.ar    1  UNL1        0.0000
      6 C           3.8068    3.8564   12.0292 C.ar    1  UNL1        0.0000
      7 C           3.7471    2.5813   11.4975 C.ar    1  UNL1        0.0000
      8 C           2.9823    2.3081   10.3708 C.ar    1  UNL1        0.0000
      9 C           2.2609    3.3423    9.7587 C.ar    1  UNL1        0.0000
     10 C           1.4916    3.0480    8.5232 C.ar    1  UNL1        0.0000
     11 C           0.0862    2.9480    8.5669 C.ar    1  UNL1        0.0000
     12 C          -0.6050    2.4682    7.4553 C.ar    1  UNL1        0.0000
     13 C           0.0716    2.1639    6.2894 C.ar    1  UNL1        0.0000
     14 C           1.4398    2.3508    6.2174 C.ar    1  UNL1        0.0000
     15 C           2.1630    2.7759    7.3260 C.ar    1  UNL1        0.0000
     16 C           3.6470    2.9444    7.2014 C.3     1  UNL1        0.0000
     17 C           2.9477    0.9057    9.8435 C.3     1  UNL1        0.0000
     18 C           2.2832    6.7568    9.2095 C.3     1  UNL1        0.0000
     19 C          -0.1162    2.1496   12.3245 C.3     1  UNL1        0.0000
     20 C          -3.0100    2.8228   11.2708 C.3     1  UNL1        0.0000
     21 C          -1.3709    0.4375    9.9870 C.3     1  UNL1        0.0000
     22 H           3.0920    5.8695   11.8734 H       1  UNL1        0.0000
     23 H           4.4100    4.0541   12.9012 H       1  UNL1        0.0000
     24 H           4.3023    1.7803   11.9611 H       1  UNL1        0.0000
     25 H          -1.6743    2.3395    7.5270 H       1  UNL1        0.0000
     26 H          -0.4720    1.7962    5.4331 H       1  UNL1        0.0000
     27 H           1.9638    2.1465    5.2965 H       1  UNL1        0.0000
     28 H           4.1269    1.9734    7.0878 H       1  UNL1        0.0000
     29 H           4.0708    3.4400    8.0702 H       1  UNL1        0.0000
     30 H           3.8806    3.5267    6.3119 H       1  UNL1        0.0000
     31 H           2.9193    0.1958   10.6674 H       1  UNL1        0.0000
     32 H           2.0880    0.7390    9.2008 H       1  UNL1        0.0000
     33 H           3.8491    0.7008    9.2671 H       1  UNL1        0.0000
     34 H           2.7133    6.4532    8.2465 H       1  UNL1        0.0000
     35 H           3.1093    7.0479    9.8636 H       1  UNL1        0.0000
     36 H           1.6342    7.6185    9.0580 H       1  UNL1        0.0000
     37 H          -0.5552    1.5930   13.1454 H       1  UNL1        0.0000
     38 H           0.0853    3.1593   12.6759 H       1  UNL1        0.0000
     39 H           0.8395    1.6892   12.0926 H       1  UNL1        0.0000
     40 H          -2.9565    3.8333   11.6717 H       1  UNL1        0.0000
     41 H          -3.6858    2.8305   10.4200 H       1  UNL1        0.0000
     42 H          -3.4631    2.1962   12.0309 H       1  UNL1        0.0000
     43 H          -1.5748   -0.3227   10.7336 H       1  UNL1        0.0000
     44 H          -2.1593    0.3809    9.2434 H       1  UNL1        0.0000
     45 H          -0.4377    0.1772    9.4973 H       1  UNL1        0.0000
@<TRIPOS>BOND
     1    27    14    1
     2    26    13    1
     3    14    13   ar
     4    14    15   ar
     5    13    12   ar
     6    30    16    1
     7    28    16    1
     8    16    15    1
     9    16    29    1
    10    15    10   ar
    11    12    25    1
    12    12    11   ar
    13    34    18    1
    14    10    11   ar
    15    10     9    1
    16    11     3    1
    17    36    18    1
    18    32    17    1
    19    18     2    1
    20    18    35    1
    21    44    21    1
    22    33    17    1
    23    45    21    1
    24     3     1    1
    25     9     4   ar
    26     9     8   ar
    27     2     4    1
    28    17     8    1
    29    17    31    1
    30    21    43    1
    31    21     1    1
    32     4     5   ar
    33     8     7   ar
    34    41    20    1
    35     1    20    1
    36     1    19    1
    37    20    40    1
    38    20    42    1
    39     5    22    1
    40     5     6   ar
    41     7    24    1
    42     7     6   ar
    43     6    23    1
    44    39    19    1
    45    19    38    1
    46    19    37    1
