@<TRIPOS>MOLECULE
1,2,16,17
 38 38 0 0 0
SMALL
GASTEIGER

@<TRIPOS>ATOM
      1 C           8.6884    2.3362   18.8091 C.ar    1  UNL1        0.0000
      2 N           8.0080    3.5372   18.9157 N.pl3   1  UNL1        0.0000
      3 SI          8.5930    4.9853   18.1125 Si      1  UNL1        0.0000
      4 C          10.4370    4.8115   17.6395 C.3     1  UNL1        0.0000
      5 H          10.5608    4.4562   16.6229 H       1  UNL1        0.0000
      6 H          10.9546    4.1176   18.2939 H       1  UNL1        0.0000
      7 H          10.9359    5.7721   17.7079 H       1  UNL1        0.0000
      8 C           7.5338    5.4058   16.5794 C.3     1  UNL1        0.0000
      9 H           6.4818    5.4660   16.8409 H       1  UNL1        0.0000
     10 H           7.6379    4.6665   15.7908 H       1  UNL1        0.0000
     11 H           7.8293    6.3666   16.1710 H       1  UNL1        0.0000
     12 C           8.4550    6.3583   19.4388 C.3     1  UNL1        0.0000
     13 H           8.9084    6.0559   20.3816 H       1  UNL1        0.0000
     14 H           7.4164    6.6146   19.6309 H       1  UNL1        0.0000
     15 H           8.9540    7.2649   19.1108 H       1  UNL1        0.0000
     16 C           8.7502    1.5916   20.0127 C.ar    1  UNL1        0.0000
     17 N           8.1601    2.2219   21.1008 N.pl3   1  UNL1        0.0000
     18 SI          9.0451    2.2776   22.6190 Si      1  UNL1        0.0000
     19 C           9.6976    4.0750   22.7311 C.3     1  UNL1        0.0000
     20 H           8.8832    4.7905   22.7886 H       1  UNL1        0.0000
     21 H          10.3021    4.3197   21.8604 H       1  UNL1        0.0000
     22 H          10.3182    4.2130   23.6108 H       1  UNL1        0.0000
     23 C          10.5963    1.1691   22.7195 C.3     1  UNL1        0.0000
     24 H          11.1752    1.1961   21.8030 H       1  UNL1        0.0000
     25 H          10.3567    0.1337   22.9339 H       1  UNL1        0.0000
     26 H          11.2328    1.5235   23.5235 H       1  UNL1        0.0000
     27 C           7.8943    1.8216   24.0690 C.3     1  UNL1        0.0000
     28 H           7.5594    0.7894   24.0222 H       1  UNL1        0.0000
     29 H           7.0191    2.4609   24.0941 H       1  UNL1        0.0000
     30 H           8.4210    1.9499   25.0086 H       1  UNL1        0.0000
     31 C           9.3255    0.3284   20.0011 C.ar    1  UNL1        0.0000
     32 H           9.3081   -0.2669   20.8992 H       1  UNL1        0.0000
     33 C           9.8716   -0.1780   18.8329 C.ar    1  UNL1        0.0000
     34 H          10.3093   -1.1648   18.8336 H       1  UNL1        0.0000
     35 C           9.8513    0.5714   17.6683 C.ar    1  UNL1        0.0000
     36 H          10.2821    0.1740   16.7618 H       1  UNL1        0.0000
     37 C           9.2577    1.8228   17.6525 C.ar    1  UNL1        0.0000
     38 H           9.1944    2.3903   16.7378 H       1  UNL1        0.0000
@<TRIPOS>BOND
     1    10     8    1
     2    11     8    1
     3     8     9    1
     4     8     3    1
     5     5     4    1
     6    38    37    1
     7    36    35    1
     8     4     7    1
     9     4     3    1
    10     4     6    1
    11    37    35   ar
    12    37     1   ar
    13    35    33   ar
    14     3     2    1
    15     3    12    1
    16     1     2    1
    17     1    16   ar
    18    33    34    1
    19    33    31   ar
    20    15    12    1
    21    12    14    1
    22    12    13    1
    23    31    16   ar
    24    31    32    1
    25    16    17    1
    26    17    18    1
    27    24    23    1
    28    21    19    1
    29    18    23    1
    30    18    19    1
    31    18    27    1
    32    23    25    1
    33    23    26    1
    34    19    20    1
    35    19    22    1
    36    28    27    1
    37    27    29    1
    38    27    30    1
