@<TRIPOS>MOLECULE
1,2,3,4
 38 38 0 0 0
SMALL
GASTEIGER

@<TRIPOS>ATOM
      1 N          -1.3664    3.8603   10.7234 N.pl3   1  UNL1       -0.2424
      2 N           0.8111    1.8820   10.3041 N.pl3   1  UNL1       -0.2424
      3 C           0.6926    2.6946   11.3975 C.2     1  UNL1        0.0786
      4 C          -0.3389    3.6316   11.5961 C.2     1  UNL1        0.0786
      5 C           0.2125    4.0230   12.9041 C.2     1  UNL1        0.0008
      6 C           1.3047    3.0318   12.6935 C.2     1  UNL1        0.0008
      7 C           2.3290    2.7001   13.4807 C.2     1  UNL1       -0.0890
      8 H           2.4436    3.1902   14.4327 H       1  UNL1        0.0541
      9 H           3.0710    1.9588   13.2425 H       1  UNL1        0.0541
     10 C          -0.0244    4.8362   13.9344 C.2     1  UNL1       -0.0890
     11 H          -0.8509    5.5215   13.9977 H       1  UNL1        0.0541
     12 H           0.6430    4.8259   14.7795 H       1  UNL1        0.0541
     13 C          -2.4106    4.8105   11.1082 C.3     1  UNL1        0.0454
     14 C          -3.4414    4.9131    9.9738 C.3     1  UNL1       -0.0424
     15 H          -4.0031    3.9868    9.8780 H       1  UNL1        0.0251
     16 H          -2.9382    5.1394    9.0310 H       1  UNL1        0.0251
     17 H          -4.1434    5.7150   10.1951 H       1  UNL1        0.0251
     18 C          -1.8346    6.2226   11.3341 C.3     1  UNL1       -0.0424
     19 H          -0.9398    6.1815   11.9467 H       1  UNL1        0.0251
     20 H          -2.5697    6.8529   11.8300 H       1  UNL1        0.0251
     21 H          -1.5794    6.6779   10.3781 H       1  UNL1        0.0251
     22 C          -3.1318    4.3026   12.3688 C.3     1  UNL1       -0.0424
     23 H          -2.4452    4.2427   13.2064 H       1  UNL1        0.0251
     24 H          -3.5250    3.3039   12.1832 H       1  UNL1        0.0251
     25 H          -3.9561    4.9624   12.6303 H       1  UNL1        0.0251
     26 C           1.8951    0.8993   10.2789 C.3     1  UNL1        0.0454
     27 C           3.2768    1.5796   10.3495 C.3     1  UNL1       -0.0424
     28 H           3.2972    2.3328   11.1305 H       1  UNL1        0.0251
     29 H           3.5041    2.0601    9.3987 H       1  UNL1        0.0251
     30 H           4.0487    0.8411   10.5550 H       1  UNL1        0.0251
     31 C           1.8368    0.1185    8.9573 C.3     1  UNL1       -0.0424
     32 H           1.8253    0.8123    8.1136 H       1  UNL1        0.0251
     33 H           0.9550   -0.5170    8.9233 H       1  UNL1        0.0251
     34 H           2.7169   -0.5167    8.8738 H       1  UNL1        0.0251
     35 C           1.7139   -0.0988   11.4357 C.3     1  UNL1       -0.0424
     36 H           1.7780    0.4069   12.3932 H       1  UNL1        0.0251
     37 H           2.4727   -0.8769   11.3923 H       1  UNL1        0.0251
     38 H           0.7303   -0.5612   11.3639 H       1  UNL1        0.0251
@<TRIPOS>BOND
     1    32    31    1
     2    34    31    1
     3    33    31    1
     4    31    26    1
     5    16    14    1
     6    29    27    1
     7    15    14    1
     8    14    17    1
     9    14    13    1
    10    26     2    1
    11    26    27    1
    12    26    35    1
    13     2     3    1
    14    27    30    1
    15    27    28    1
    16    21    18    1
    17     1    13    1
    18     1     4    1
    19    13    18    1
    20    13    22    1
    21    18    20    1
    22    18    19    1
    23    38    35    1
    24    37    35    1
    25     3     4    2
    26     3     6    1
    27    35    36    1
    28     4     5    1
    29    24    22    1
    30    22    25    1
    31    22    23    1
    32     6     5    1
    33     6     7    2
    34     5    10    2
    35     9     7    1
    36     7     8    1
    37    10    11    1
    38    10    12    1
