@<TRIPOS>MOLECULE
3,4,5,12
 72 73 0 0 0
SMALL
GASTEIGER

@<TRIPOS>ATOM
      1 SI        -10.1647   -2.7302   -9.0716 Si      1  UNL1        0.0000
      2 SI         -5.8318   -1.2876   -4.2212 Si      1  UNL1        0.0000
      3 N          -8.8222   -3.0103   -8.0241 N.pl3   1  UNL1        0.0000
      4 N          -6.4084   -2.1126   -5.6228 N.pl3   1  UNL1        0.0000
      5 C          -8.4876   -4.2339   -7.4639 C.ar    1  UNL1        0.0000
      6 C          -9.4386   -5.2366   -7.2238 C.ar    1  UNL1        0.0000
      7 C          -9.0925   -6.4272   -6.6183 C.ar    1  UNL1        0.0000
      8 C          -7.7880   -6.6523   -6.2183 C.ar    1  UNL1        0.0000
      9 C          -6.8064   -5.6994   -6.4695 C.ar    1  UNL1        0.0000
     10 C          -7.1380   -4.5050   -7.1083 C.ar    1  UNL1        0.0000
     11 C          -6.0206   -3.5962   -7.5089 C.ar    1  UNL1        0.0000
     12 C          -5.6293   -2.4903   -6.7058 C.ar    1  UNL1        0.0000
     13 C          -4.4494   -1.8173   -7.0552 C.ar    1  UNL1        0.0000
     14 C          -3.7170   -2.1777   -8.1677 C.ar    1  UNL1        0.0000
     15 C          -4.1436   -3.2143   -8.9775 C.ar    1  UNL1        0.0000
     16 C          -5.2878   -3.9326   -8.6467 C.ar    1  UNL1        0.0000
     17 C          -5.6898   -5.0904   -9.5152 C.3     1  UNL1        0.0000
     18 C          -5.3898   -6.0016   -6.0713 C.3     1  UNL1        0.0000
     19 C          -9.9665   -3.6747  -10.7535 C.3     1  UNL1        0.0000
     20 C          -9.9959   -5.1872  -10.5432 C.3     1  UNL1        0.0000
     21 C         -11.0992   -3.2929  -11.7057 C.3     1  UNL1        0.0000
     22 C          -8.6326   -3.3043  -11.4041 C.3     1  UNL1        0.0000
     23 C         -10.1414   -0.8481   -9.4313 C.3     1  UNL1        0.0000
     24 C         -11.9371   -3.0452   -8.3761 C.3     1  UNL1        0.0000
     25 C          -4.5971   -2.3817   -3.2021 C.3     1  UNL1        0.0000
     26 C          -3.3170   -2.6492   -3.9910 C.3     1  UNL1        0.0000
     27 C          -4.2274   -1.6773   -1.8972 C.3     1  UNL1        0.0000
     28 C          -5.2459   -3.7257   -2.8674 C.3     1  UNL1        0.0000
     29 C          -7.3875   -0.9722   -3.1473 C.3     1  UNL1        0.0000
     30 C          -5.0699    0.4701   -4.4545 C.3     1  UNL1        0.0000
     31 H         -10.4596   -5.0543   -7.5144 H       1  UNL1        0.0000
     32 H          -9.8487   -7.1815   -6.4498 H       1  UNL1        0.0000
     33 H          -7.5206   -7.5762   -5.7270 H       1  UNL1        0.0000
     34 H          -4.1268   -0.9954   -6.4384 H       1  UNL1        0.0000
     35 H          -2.8105   -1.6398   -8.4089 H       1  UNL1        0.0000
     36 H          -3.5805   -3.4845   -9.8586 H       1  UNL1        0.0000
     37 H          -5.4474   -4.8840  -10.5559 H       1  UNL1        0.0000
     38 H          -6.7525   -5.2989   -9.4296 H       1  UNL1        0.0000
     39 H          -5.1476   -5.9889   -9.2195 H       1  UNL1        0.0000
     40 H          -4.9063   -6.6128   -6.8338 H       1  UNL1        0.0000
     41 H          -5.3717   -6.5611   -5.1379 H       1  UNL1        0.0000
     42 H          -4.8087   -5.0912   -5.9543 H       1  UNL1        0.0000
     43 H         -10.9447   -5.5017  -10.1151 H       1  UNL1        0.0000
     44 H          -9.8663   -5.7083  -11.4925 H       1  UNL1        0.0000
     45 H          -9.2005   -5.4992   -9.8709 H       1  UNL1        0.0000
     46 H         -12.0633   -3.5798  -11.2939 H       1  UNL1        0.0000
     47 H         -10.9764   -3.7967  -12.6647 H       1  UNL1        0.0000
     48 H         -11.1095   -2.2206  -11.8841 H       1  UNL1        0.0000
     49 H          -8.4731   -3.8897  -12.3102 H       1  UNL1        0.0000
     50 H          -8.6156   -2.2517  -11.6788 H       1  UNL1        0.0000
     51 H          -7.8082   -3.4965  -10.7219 H       1  UNL1        0.0000
     52 H          -9.4193   -0.5800  -10.1936 H       1  UNL1        0.0000
     53 H         -11.1151   -0.5196   -9.7791 H       1  UNL1        0.0000
     54 H          -9.9141   -0.2785   -8.5308 H       1  UNL1        0.0000
     55 H         -11.9928   -2.7391   -7.3341 H       1  UNL1        0.0000
     56 H         -12.2444   -4.0850   -8.4346 H       1  UNL1        0.0000
     57 H         -12.6729   -2.4631   -8.9220 H       1  UNL1        0.0000
     58 H          -3.5394   -3.1553   -4.9271 H       1  UNL1        0.0000
     59 H          -2.8013   -1.7201   -4.2216 H       1  UNL1        0.0000
     60 H          -2.6363   -3.2773   -3.4151 H       1  UNL1        0.0000
     61 H          -3.7252   -0.7342   -2.0960 H       1  UNL1        0.0000
     62 H          -3.5570   -2.3005   -1.3048 H       1  UNL1        0.0000
     63 H          -5.1147   -1.4732   -1.3033 H       1  UNL1        0.0000
     64 H          -4.5342   -4.3785   -2.3609 H       1  UNL1        0.0000
     65 H          -6.1012   -3.5890   -2.2091 H       1  UNL1        0.0000
     66 H          -5.5831   -4.2230   -3.7733 H       1  UNL1        0.0000
     67 H          -8.2343   -0.6659   -3.7609 H       1  UNL1        0.0000
     68 H          -7.6812   -1.8452   -2.5762 H       1  UNL1        0.0000
     69 H          -7.2006   -0.1717   -2.4395 H       1  UNL1        0.0000
     70 H          -5.1335    1.0421   -3.5340 H       1  UNL1        0.0000
     71 H          -4.0245    0.4514   -4.7479 H       1  UNL1        0.0000
     72 H          -5.6195    1.0208   -5.2144 H       1  UNL1        0.0000
@<TRIPOS>BOND
     1    47    21    1
     2    49    22    1
     3    48    21    1
     4    21    46    1
     5    21    19    1
     6    50    22    1
     7    44    20    1
     8    22    19    1
     9    22    51    1
    10    19    20    1
    11    19     1    1
    12    37    17    1
    13    20    43    1
    14    20    45    1
    15    52    23    1
    16    36    15    1
    17    53    23    1
    18    17    38    1
    19    17    39    1
    20    17    16    1
    21    23     1    1
    22    23    54    1
    23     1    24    1
    24     1     3    1
    25    15    16   ar
    26    15    14   ar
    27    57    24    1
    28    16    11   ar
    29    56    24    1
    30    35    14    1
    31    24    55    1
    32    14    13   ar
    33     3     5    1
    34    31     6    1
    35    11    10    1
    36    11    12   ar
    37     5     6   ar
    38     5    10   ar
    39     6     7   ar
    40    10     9   ar
    41    13    12   ar
    42    13    34    1
    43    40    18    1
    44    12     4    1
    45     7    32    1
    46     7     8   ar
    47     9     8   ar
    48     9    18    1
    49     8    33    1
    50    18    42    1
    51    18    41    1
    52     4     2    1
    53    72    30    1
    54    58    26    1
    55    71    30    1
    56    30     2    1
    57    30    70    1
    58    59    26    1
    59     2    25    1
    60     2    29    1
    61    26    60    1
    62    26    25    1
    63    66    28    1
    64    67    29    1
    65    25    28    1
    66    25    27    1
    67    29    68    1
    68    29    69    1
    69    28    64    1
    70    28    65    1
    71    61    27    1
    72    27    62    1
    73    27    63    1
