@<TRIPOS>MOLECULE
1,2,9,12
 98 102 0 0 0
SMALL
GASTEIGER

@<TRIPOS>ATOM
      1 N          -0.5709   11.8844    7.3506 N.3     1  UNL1        0.0000
      2 N          -1.8915   11.0415    3.3682 N.3     1  UNL1        0.0000
      3 P           0.3542   10.6540    7.8045 P.3     1  UNL1        0.0000
      4 P          -0.5903   10.9056    2.4293 P.3     1  UNL1        0.0000
      5 P           2.0634   11.6491    5.7542 P.3     1  UNL1        0.0000
      6 P           1.3089    8.8318    3.8362 P.3     1  UNL1        0.0000
      7 SI         -1.3979   13.0334    8.3529 Si      1  UNL1        0.0000
      8 SI         -3.5054   11.5241    2.9499 Si      1  UNL1        0.0000
      9 C           1.0525   10.2047    6.2362 C.3     1  UNL1        0.0000
     10 C           1.3370    8.7968    5.7800 C.3     1  UNL1        0.0000
     11 H           0.4953    8.1440    6.0744 H       1  UNL1        0.0000
     12 C           0.6380   10.5336    3.6746 C.3     1  UNL1        0.0000
     13 C           1.7203   11.5899    3.8471 C.3     1  UNL1        0.0000
     14 H           1.2662   12.5840    3.6950 H       1  UNL1        0.0000
     15 C           2.5743    8.0891    6.2714 C.ar    1  UNL1        0.0000
     16 C           2.9941    6.9344    5.6209 C.ar    1  UNL1        0.0000
     17 H           2.4416    6.5870    4.7562 H       1  UNL1        0.0000
     18 C           4.1045    6.2395    6.0599 C.ar    1  UNL1        0.0000
     19 H           4.4242    5.3503    5.5363 H       1  UNL1        0.0000
     20 C           4.8064    6.6815    7.1689 C.ar    1  UNL1        0.0000
     21 H           5.6780    6.1432    7.5105 H       1  UNL1        0.0000
     22 C           4.3809    7.8146    7.8395 C.ar    1  UNL1        0.0000
     23 H           4.9180    8.1639    8.7094 H       1  UNL1        0.0000
     24 C           3.2704    8.5074    7.3954 C.ar    1  UNL1        0.0000
     25 H           2.9503    9.3994    7.9130 H       1  UNL1        0.0000
     26 C           3.8045   11.0395    5.8159 C.ar    1  UNL1        0.0000
     27 C           4.6279   11.6367    6.7646 C.ar    1  UNL1        0.0000
     28 H           4.2284   12.4321    7.3822 H       1  UNL1        0.0000
     29 C           5.9415   11.2334    6.9175 C.ar    1  UNL1        0.0000
     30 H           6.5697   11.7049    7.6600 H       1  UNL1        0.0000
     31 C           6.4510   10.2289    6.1131 C.ar    1  UNL1        0.0000
     32 H           7.4776    9.9124    6.2266 H       1  UNL1        0.0000
     33 C           5.6422    9.6335    5.1591 C.ar    1  UNL1        0.0000
     34 H           6.0349    8.8500    4.5280 H       1  UNL1        0.0000
     35 C           4.3290   10.0337    5.0132 C.ar    1  UNL1        0.0000
     36 H           3.7104    9.5562    4.2654 H       1  UNL1        0.0000
     37 C           2.9347   11.5826    2.9651 C.ar    1  UNL1        0.0000
     38 C           3.9377   12.5165    3.2143 C.ar    1  UNL1        0.0000
     39 H           3.8181   13.2000    4.0451 H       1  UNL1        0.0000
     40 C           5.0668   12.5725    2.4233 C.ar    1  UNL1        0.0000
     41 H           5.8388   13.2968    2.6376 H       1  UNL1        0.0000
     42 C           5.2092   11.7017    1.3542 C.ar    1  UNL1        0.0000
     43 H           6.0939   11.7400    0.7362 H       1  UNL1        0.0000
     44 C           4.2054   10.7920    1.0772 C.ar    1  UNL1        0.0000
     45 H           4.2997   10.1209    0.2354 H       1  UNL1        0.0000
     46 C           3.0739   10.7374    1.8731 C.ar    1  UNL1        0.0000
     47 H           2.2922   10.0264    1.6365 H       1  UNL1        0.0000
     48 C          -0.2804    7.9258    3.6353 C.ar    1  UNL1        0.0000
     49 C          -0.3447    6.8638    2.7384 C.ar    1  UNL1        0.0000
     50 H           0.5311    6.6113    2.1549 H       1  UNL1        0.0000
     51 C          -1.5148    6.1392    2.5910 C.ar    1  UNL1        0.0000
     52 H          -1.5569    5.3193    1.8886 H       1  UNL1        0.0000
     53 C          -2.6280    6.4601    3.3514 C.ar    1  UNL1        0.0000
     54 H          -3.5394    5.8917    3.2406 H       1  UNL1        0.0000
     55 C          -2.5665    7.5010    4.2653 C.ar    1  UNL1        0.0000
     56 H          -3.4192    7.7478    4.8797 H       1  UNL1        0.0000
     57 C          -1.3999    8.2316    4.4031 C.ar    1  UNL1        0.0000
     58 H          -1.3484    9.0399    5.1394 H       1  UNL1        0.0000
     59 C           1.4450   11.1391    9.2130 C.3     1  UNL1        0.0000
     60 H           0.8422   11.6496    9.9601 H       1  UNL1        0.0000
     61 H           2.2010   11.8265    8.8359 H       1  UNL1        0.0000
     62 H           1.9221   10.2724    9.6644 H       1  UNL1        0.0000
     63 C          -0.5759    9.2168    8.4868 C.3     1  UNL1        0.0000
     64 H          -0.9556    9.4880    9.4707 H       1  UNL1        0.0000
     65 H           0.0749    8.3484    8.5814 H       1  UNL1        0.0000
     66 H          -1.4241    8.9887    7.8369 H       1  UNL1        0.0000
     67 C          -0.1908   14.4652    8.7528 C.3     1  UNL1        0.0000
     68 H           0.2766   14.8282    7.8420 H       1  UNL1        0.0000
     69 H           0.6000   14.1650    9.4328 H       1  UNL1        0.0000
     70 H          -0.7208   15.2940    9.2086 H       1  UNL1        0.0000
     71 C          -2.0700   12.2559    9.9712 C.3     1  UNL1        0.0000
     72 H          -2.7419   11.4318    9.7501 H       1  UNL1        0.0000
     73 H          -2.6313   12.9959   10.5311 H       1  UNL1        0.0000
     74 H          -1.2859   11.8831   10.6231 H       1  UNL1        0.0000
     75 C          -2.9091   13.7226    7.4219 C.3     1  UNL1        0.0000
     76 H          -3.6707   12.9595    7.2893 H       1  UNL1        0.0000
     77 H          -2.6336   14.1139    6.4474 H       1  UNL1        0.0000
     78 H          -3.3561   14.5346    7.9860 H       1  UNL1        0.0000
     79 C          -0.1763   12.4506    1.5191 C.3     1  UNL1        0.0000
     80 H          -0.8755   12.5603    0.6932 H       1  UNL1        0.0000
     81 H           0.8395   12.4087    1.1303 H       1  UNL1        0.0000
     82 H          -0.2848   13.3019    2.1916 H       1  UNL1        0.0000
     83 C          -0.8576    9.7013    1.0547 C.3     1  UNL1        0.0000
     84 H          -1.3762   10.2032    0.2415 H       1  UNL1        0.0000
     85 H          -1.4699    8.8776    1.4127 H       1  UNL1        0.0000
     86 H           0.0919    9.3180    0.6889 H       1  UNL1        0.0000
     87 C          -4.6811   10.0270    3.1485 C.3     1  UNL1        0.0000
     88 H          -4.3500    9.1669    2.5738 H       1  UNL1        0.0000
     89 H          -5.6782   10.2890    2.8116 H       1  UNL1        0.0000
     90 H          -4.7504    9.7288    4.1888 H       1  UNL1        0.0000
     91 C          -3.6983   12.1483    1.1501 C.3     1  UNL1        0.0000
     92 H          -3.3478   11.4232    0.4235 H       1  UNL1        0.0000
     93 H          -3.1698   13.0809    0.9847 H       1  UNL1        0.0000
     94 H          -4.7470   12.3299    0.9430 H       1  UNL1        0.0000
     95 C          -4.0331   12.9594    4.0896 C.3     1  UNL1        0.0000
     96 H          -3.2981   13.7620    4.0903 H       1  UNL1        0.0000
     97 H          -4.1590   12.6085    5.1094 H       1  UNL1        0.0000
     98 H          -4.9818   13.3795    3.7702 H       1  UNL1        0.0000
@<TRIPOS>BOND
     1    45    44    1
     2    84    83    1
     3    92    91    1
     4    86    83    1
     5    80    79    1
     6    43    42    1
     7    94    91    1
     8    93    91    1
     9    83    85    1
    10    83     4    1
    11    44    42   ar
    12    44    46   ar
    13    81    79    1
    14    91     8    1
    15    42    40   ar
    16    79    82    1
    17    79     4    1
    18    47    46    1
    19    46    37   ar
    20    52    51    1
    21    50    49    1
    22    40    41    1
    23    40    38   ar
    24     4     2    1
    25     4    12    1
    26    88    87    1
    27    51    49   ar
    28    51    53   ar
    29    49    48   ar
    30    89    87    1
    31     8    87    1
    32     8     2    1
    33     8    95    1
    34    37    38   ar
    35    37    13    1
    36    87    90    1
    37    38    39    1
    38    54    53    1
    39    53    55   ar
    40    48     6    1
    41    48    57   ar
    42    12     6    1
    43    12    13    1
    44    14    13    1
    45    98    95    1
    46     6    10    1
    47    13     5    1
    48    95    96    1
    49    95    97    1
    50    55    57   ar
    51    55    56    1
    52    36    35    1
    53    57    58    1
    54    34    33    1
    55    17    16    1
    56    35    33   ar
    57    35    26   ar
    58    33    31   ar
    59    19    18    1
    60    16    18   ar
    61    16    15   ar
    62     5    26    1
    63     5     9    1
    64    10    11    1
    65    10     9    1
    66    10    15    1
    67    26    27   ar
    68    18    20   ar
    69    31    32    1
    70    31    29   ar
    71     9     3    1
    72    15    24   ar
    73    77    75    1
    74    27    29   ar
    75    27    28    1
    76    29    30    1
    77    20    21    1
    78    20    22   ar
    79    76    75    1
    80     1     3    1
    81     1     7    1
    82    24    22   ar
    83    24    25    1
    84    75    78    1
    85    75     7    1
    86     3    63    1
    87     3    59    1
    88    66    63    1
    89    22    23    1
    90    68    67    1
    91     7    67    1
    92     7    71    1
    93    63    65    1
    94    63    64    1
    95    67    70    1
    96    67    69    1
    97    61    59    1
    98    59    62    1
    99    59    60    1
   100    72    71    1
   101    71    73    1
   102    71    74    1
