@<TRIPOS>MOLECULE
1,6,50,52
 98 102 0 0 0
SMALL
GASTEIGER

@<TRIPOS>ATOM
      1 N          -1.8180   17.5658   14.0540 N.3     1  UNL1        0.0000
      2 P          -2.0325   16.2032   14.8928 P.3     1  UNL1        0.0000
      3 P          -1.8481   13.8962   12.6250 P.3     1  UNL1        0.0000
      4 SI         -1.1106   19.0518   14.6176 Si      1  UNL1        0.0000
      5 C          -4.1235   14.6647   13.7975 C.3     1  UNL1        0.0000
      6 C          -2.7127   15.1998   13.5885 C.3     1  UNL1        0.0000
      7 C          -4.3318   13.5652   14.7966 C.ar    1  UNL1        0.0000
      8 C          -5.6354   13.2215   15.1484 C.ar    1  UNL1        0.0000
      9 C          -5.8798   12.1995   16.0451 C.ar    1  UNL1        0.0000
     10 C          -4.8243   11.4983   16.6057 C.ar    1  UNL1        0.0000
     11 C          -3.5258   11.8281   16.2596 C.ar    1  UNL1        0.0000
     12 C          -3.2821   12.8532   15.3628 C.ar    1  UNL1        0.0000
     13 C          -0.0818   14.3555   12.8044 C.ar    1  UNL1        0.0000
     14 C           0.7887   13.3323   13.1713 C.ar    1  UNL1        0.0000
     15 C           2.1442   13.5733   13.3030 C.ar    1  UNL1        0.0000
     16 C           2.6432   14.8419   13.0565 C.ar    1  UNL1        0.0000
     17 C           1.7833   15.8649   12.6874 C.ar    1  UNL1        0.0000
     18 C           0.4246   15.6307   12.5657 C.ar    1  UNL1        0.0000
     19 C          -3.2533   16.3697   16.2527 C.3     1  UNL1        0.0000
     20 C          -0.5306   15.6579   15.8006 C.3     1  UNL1        0.0000
     21 C           0.7590   19.0503   14.2205 C.3     1  UNL1        0.0000
     22 C          -1.3444   19.3706   16.4873 C.3     1  UNL1        0.0000
     23 C          -1.9807   20.4596   13.6801 C.3     1  UNL1        0.0000
     24 H          -4.8472   15.4704   14.0052 H       1  UNL1        0.0000
     25 H          -6.4609   13.7680   14.7125 H       1  UNL1        0.0000
     26 H          -6.8969   11.9482   16.3083 H       1  UNL1        0.0000
     27 H          -5.0137   10.6996   17.3074 H       1  UNL1        0.0000
     28 H          -2.6968   11.2850   16.6902 H       1  UNL1        0.0000
     29 H          -2.2603   13.1030   15.1040 H       1  UNL1        0.0000
     30 H           0.3858   12.3432   13.3459 H       1  UNL1        0.0000
     31 H           2.8121   12.7732   13.5880 H       1  UNL1        0.0000
     32 H           3.7025   15.0333   13.1467 H       1  UNL1        0.0000
     33 H           2.1736   16.8513   12.4874 H       1  UNL1        0.0000
     34 H          -0.2343   16.4444   12.2869 H       1  UNL1        0.0000
     35 H          -2.7930   16.9413   17.0560 H       1  UNL1        0.0000
     36 H          -3.5475   15.3903   16.6246 H       1  UNL1        0.0000
     37 H          -4.1281   16.9088   15.8911 H       1  UNL1        0.0000
     38 H          -0.2607   16.4418   16.5053 H       1  UNL1        0.0000
     39 H          -0.7467   14.7401   16.3425 H       1  UNL1        0.0000
     40 H           0.2958   15.4956   15.1155 H       1  UNL1        0.0000
     41 H           1.2230   19.9602   14.5853 H       1  UNL1        0.0000
     42 H           1.2741   18.2079   14.6725 H       1  UNL1        0.0000
     43 H           0.9204   19.0040   13.1482 H       1  UNL1        0.0000
     44 H          -0.8504   18.6250   17.1026 H       1  UNL1        0.0000
     45 H          -0.9207   20.3347   16.7472 H       1  UNL1        0.0000
     46 H          -2.3950   19.3913   16.7588 H       1  UNL1        0.0000
     47 H          -1.5260   21.4171   13.9119 H       1  UNL1        0.0000
     48 H          -3.0319   20.5234   13.9473 H       1  UNL1        0.0000
     49 H          -1.9056   20.3145   12.6069 H       1  UNL1        0.0000
     50 N          -4.5142   17.5658   10.6457 N.3     1  UNL1        0.0000
     51 P          -4.2998   16.2031    9.8069 P.3     1  UNL1        0.0000
     52 C          -3.6196   15.1998   11.1113 C.3     1  UNL1        0.0000
     53 P          -4.4841   13.8962   12.0748 P.3     1  UNL1        0.0000
     54 C          -2.2087   14.6647   10.9024 C.3     1  UNL1        0.0000
     55 C          -2.0004   13.5652    9.9032 C.ar    1  UNL1        0.0000
     56 C          -0.6967   13.2215    9.5514 C.ar    1  UNL1        0.0000
     57 C          -0.4524   12.1995    8.6547 C.ar    1  UNL1        0.0000
     58 C          -1.5079   11.4984    8.0940 C.ar    1  UNL1        0.0000
     59 C          -2.8064   11.8281    8.4402 C.ar    1  UNL1        0.0000
     60 C          -3.0500   12.8532    9.3371 C.ar    1  UNL1        0.0000
     61 H          -4.0719   13.1029    9.5959 H       1  UNL1        0.0000
     62 H          -3.6354   11.2850    8.0095 H       1  UNL1        0.0000
     63 H          -1.3185   10.6997    7.3922 H       1  UNL1        0.0000
     64 H           0.5647   11.9483    8.3913 H       1  UNL1        0.0000
     65 H           0.1287   13.7680    9.9873 H       1  UNL1        0.0000
     66 H          -1.4851   15.4704   10.6947 H       1  UNL1        0.0000
     67 C          -6.2504   14.3556   11.8955 C.ar    1  UNL1        0.0000
     68 C          -7.1208   13.3324   11.5285 C.ar    1  UNL1        0.0000
     69 C          -8.4764   13.5733   11.3967 C.ar    1  UNL1        0.0000
     70 C          -8.9754   14.8419   11.6431 C.ar    1  UNL1        0.0000
     71 C          -8.1155   15.8650   12.0124 C.ar    1  UNL1        0.0000
     72 C          -6.7568   15.6308   12.1341 C.ar    1  UNL1        0.0000
     73 H          -6.0980   16.4445   12.4130 H       1  UNL1        0.0000
     74 H          -8.5059   16.8514   12.2123 H       1  UNL1        0.0000
     75 H         -10.0347   15.0333   11.5528 H       1  UNL1        0.0000
     76 H          -9.1442   12.7733   11.1117 H       1  UNL1        0.0000
     77 H          -6.7180   12.3432   11.3540 H       1  UNL1        0.0000
     78 C          -3.0789   16.3696    8.4471 C.3     1  UNL1        0.0000
     79 H          -3.5392   16.9411    7.6437 H       1  UNL1        0.0000
     80 H          -2.7847   15.3902    8.0752 H       1  UNL1        0.0000
     81 H          -2.2040   16.9087    8.8086 H       1  UNL1        0.0000
     82 C          -5.8017   15.6579    8.8992 C.3     1  UNL1        0.0000
     83 H          -6.0714   16.4418    8.1945 H       1  UNL1        0.0000
     84 H          -5.5856   14.7401    8.3572 H       1  UNL1        0.0000
     85 H          -6.6280   15.4956    9.5843 H       1  UNL1        0.0000
     86 SI         -5.2217   19.0518   10.0822 Si      1  UNL1        0.0000
     87 C          -7.0912   19.0501   10.4791 C.3     1  UNL1        0.0000
     88 H          -7.5552   19.9600   10.1141 H       1  UNL1        0.0000
     89 H          -7.6063   18.2077   10.0271 H       1  UNL1        0.0000
     90 H          -7.2528   19.0040   11.5513 H       1  UNL1        0.0000
     91 C          -4.9875   19.3707    8.2125 C.3     1  UNL1        0.0000
     92 H          -5.4814   18.6250    7.5971 H       1  UNL1        0.0000
     93 H          -5.4111   20.3347    7.9525 H       1  UNL1        0.0000
     94 H          -3.9369   19.3913    7.9411 H       1  UNL1        0.0000
     95 C          -4.3517   20.4596   11.0198 C.3     1  UNL1        0.0000
     96 H          -4.8065   21.4170   10.7881 H       1  UNL1        0.0000
     97 H          -3.3005   20.5235   10.7528 H       1  UNL1        0.0000
     98 H          -4.4269   20.3144   12.0930 H       1  UNL1        0.0000
@<TRIPOS>BOND
     1    63    58    1
     2    92    91    1
     3    79    78    1
     4    94    91    1
     5    93    91    1
     6    62    59    1
     7    80    78    1
     8    58    59   ar
     9    58    57   ar
    10    83    82    1
    11    91    86    1
    12    84    82    1
    13    64    57    1
    14    59    60   ar
    15    78    81    1
    16    78    51    1
    17    57    56   ar
    18    82    85    1
    19    82    51    1
    20    60    61    1
    21    60    55   ar
    22    56    55   ar
    23    56    65    1
    24    51    50    1
    25    51    52    1
    26    55    54    1
    27    89    87    1
    28    86    87    1
    29    86    50    1
    30    86    95    1
    31    88    87    1
    32    87    90    1
    33    66    54    1
    34    97    95    1
    35    96    95    1
    36    54    52    1
    37    54     3    1
    38    95    98    1
    39    52    53    1
    40    76    69    1
    41    77    68    1
    42    69    68   ar
    43    69    70   ar
    44    68    67   ar
    45    75    70    1
    46    70    71   ar
    47    67    53    1
    48    67    72   ar
    49    71    72   ar
    50    71    74    1
    51    53     5    1
    52    72    73    1
    53    34    18    1
    54    33    17    1
    55    18    17   ar
    56    18    13   ar
    57    49    23    1
    58     3    13    1
    59     3     6    1
    60    17    16   ar
    61    13    14   ar
    62    16    32    1
    63    16    15   ar
    64    43    21    1
    65    14    15   ar
    66    14    30    1
    67    15    31    1
    68     6     5    1
    69     6     2    1
    70    23    47    1
    71    23    48    1
    72    23     4    1
    73     5    24    1
    74     5     7    1
    75     1     4    1
    76     1     2    1
    77    21    41    1
    78    21     4    1
    79    21    42    1
    80     4    22    1
    81    25     8    1
    82     7     8   ar
    83     7    12   ar
    84     2    20    1
    85     2    19    1
    86    29    12    1
    87    40    20    1
    88     8     9   ar
    89    12    11   ar
    90    20    39    1
    91    20    38    1
    92    37    19    1
    93     9    26    1
    94     9    10   ar
    95    19    36    1
    96    19    35    1
    97    11    10   ar
    98    11    28    1
    99    22    45    1
   100    22    46    1
   101    22    44    1
   102    10    27    1
