@<TRIPOS>MOLECULE
3,4,9,10
 74 74 0 0 0
SMALL
GASTEIGER

@<TRIPOS>ATOM
      1 SI         14.3721    1.8160    4.2884 Si      1  UNL1        0.0000
      2 SI         10.4475   -2.4093    5.3303 Si      1  UNL1        0.0000
      3 N          11.0987   -0.9364    4.6864 N.pl3   1  UNL1        0.0000
      4 N          12.8961    0.8988    4.2407 N.pl3   1  UNL1        0.0000
      5 C          11.9501    1.4006    2.0127 C.ar    1  UNL1        0.0000
      6 C          11.0104    1.0919    1.0446 C.ar    1  UNL1        0.0000
      7 C          10.0805    0.0891    1.2657 C.ar    1  UNL1        0.0000
      8 C          10.0746   -0.6065    2.4620 C.ar    1  UNL1        0.0000
      9 C          11.0179   -0.3309    3.4480 C.ar    1  UNL1        0.0000
     10 C          11.9928    0.6944    3.2123 C.ar    1  UNL1        0.0000
     11 C          13.9238    3.5837    4.9503 C.3     1  UNL1        0.0000
     12 C          12.9160    4.2792    4.0338 C.3     1  UNL1        0.0000
     13 C          13.3327    3.5121    6.3582 C.3     1  UNL1        0.0000
     14 C          15.2848    1.9822    2.5920 C.3     1  UNL1        0.0000
     15 C          16.7123    2.5022    2.7494 C.3     1  UNL1        0.0000
     16 C          15.2904    0.6861    1.7822 C.3     1  UNL1        0.0000
     17 C          15.3741    0.8434    5.6314 C.3     1  UNL1        0.0000
     18 C          16.5066    1.6475    6.2667 C.3     1  UNL1        0.0000
     19 C          15.9339   -0.4748    5.0934 C.3     1  UNL1        0.0000
     20 C          11.7776   -2.8228    6.6809 C.3     1  UNL1        0.0000
     21 C          13.1939   -2.5130    6.1918 C.3     1  UNL1        0.0000
     22 C          11.7087   -4.2502    7.2173 C.3     1  UNL1        0.0000
     23 C          10.2081   -3.7615    3.9723 C.3     1  UNL1        0.0000
     24 C          11.5221   -4.0805    3.2612 C.3     1  UNL1        0.0000
     25 C           9.5570   -5.0397    4.4952 C.3     1  UNL1        0.0000
     26 C           8.7621   -1.9897    6.1922 C.3     1  UNL1        0.0000
     27 C           8.9721   -1.0982    7.4162 C.3     1  UNL1        0.0000
     28 C           7.8202   -1.2822    5.2174 C.3     1  UNL1        0.0000
     29 H          12.6548    2.1993    1.8482 H       1  UNL1        0.0000
     30 H          11.0006    1.6452    0.1178 H       1  UNL1        0.0000
     31 H           9.3450   -0.1437    0.5109 H       1  UNL1        0.0000
     32 H           9.3268   -1.3603    2.6471 H       1  UNL1        0.0000
     33 H          14.8237    4.2058    4.9958 H       1  UNL1        0.0000
     34 H          12.6567    5.2615    4.4270 H       1  UNL1        0.0000
     35 H          13.3184    4.4146    3.0328 H       1  UNL1        0.0000
     36 H          12.0005    3.6891    3.9651 H       1  UNL1        0.0000
     37 H          13.1033    4.5129    6.7247 H       1  UNL1        0.0000
     38 H          12.3972    2.9378    6.3447 H       1  UNL1        0.0000
     39 H          14.0155    3.0420    7.0633 H       1  UNL1        0.0000
     40 H          14.7477    2.7310    2.0011 H       1  UNL1        0.0000
     41 H          17.1502    2.7018    1.7722 H       1  UNL1        0.0000
     42 H          16.7315    3.4232    3.3258 H       1  UNL1        0.0000
     43 H          17.3369    1.7679    3.2498 H       1  UNL1        0.0000
     44 H          15.6972    0.8650    0.7873 H       1  UNL1        0.0000
     45 H          15.9047   -0.0676    2.2654 H       1  UNL1        0.0000
     46 H          14.2843    0.2886    1.6742 H       1  UNL1        0.0000
     47 H          14.6583    0.5906    6.4302 H       1  UNL1        0.0000
     48 H          16.9760    1.0730    7.0644 H       1  UNL1        0.0000
     49 H          17.2701    1.8873    5.5319 H       1  UNL1        0.0000
     50 H          16.1447    2.5794    6.6904 H       1  UNL1        0.0000
     51 H          16.2949   -1.0997    5.9093 H       1  UNL1        0.0000
     52 H          15.1723   -1.0269    4.5461 H       1  UNL1        0.0000
     53 H          16.7711   -0.2854    4.4256 H       1  UNL1        0.0000
     54 H          11.5912   -2.1528    7.5286 H       1  UNL1        0.0000
     55 H          13.9077   -2.6170    7.0091 H       1  UNL1        0.0000
     56 H          13.4873   -3.1918    5.3933 H       1  UNL1        0.0000
     57 H          13.2413   -1.4794    5.8131 H       1  UNL1        0.0000
     58 H          12.3860   -4.3732    8.0617 H       1  UNL1        0.0000
     59 H          10.7028   -4.4911    7.5512 H       1  UNL1        0.0000
     60 H          11.9999   -4.9648    6.4516 H       1  UNL1        0.0000
     61 H           9.5291   -3.3570    3.2170 H       1  UNL1        0.0000
     62 H          11.3468   -4.7410    2.4129 H       1  UNL1        0.0000
     63 H          11.9900   -3.1686    2.8955 H       1  UNL1        0.0000
     64 H          12.2125   -4.5793    3.9366 H       1  UNL1        0.0000
     65 H           9.3808   -5.7330    3.6737 H       1  UNL1        0.0000
     66 H          10.1913   -5.5354    5.2226 H       1  UNL1        0.0000
     67 H           8.6021   -4.8223    4.9657 H       1  UNL1        0.0000
     68 H           8.2693   -2.9064    6.5314 H       1  UNL1        0.0000
     69 H           8.0113   -0.7906    7.8285 H       1  UNL1        0.0000
     70 H           9.5203   -1.6195    8.1979 H       1  UNL1        0.0000
     71 H           9.5273   -0.1925    7.1407 H       1  UNL1        0.0000
     72 H           6.8763   -1.0397    5.7043 H       1  UNL1        0.0000
     73 H           8.2711   -0.3525    4.8680 H       1  UNL1        0.0000
     74 H           7.6025   -1.9092    4.3561 H       1  UNL1        0.0000
@<TRIPOS>BOND
     1    30     6    1
     2    31     7    1
     3    44    16    1
     4     6     7   ar
     5     6     5   ar
     6     7     8   ar
     7    46    16    1
     8    41    15    1
     9    16    45    1
    10    16    14    1
    11    29     5    1
    12    40    14    1
    13     5    10   ar
    14    62    24    1
    15     8    32    1
    16     8     9   ar
    17    14    15    1
    18    14     1    1
    19    15    43    1
    20    15    42    1
    21    63    24    1
    22    35    12    1
    23    10     9   ar
    24    10     4    1
    25    61    23    1
    26    24    64    1
    27    24    23    1
    28     9     3    1
    29    65    25    1
    30    36    12    1
    31    23    25    1
    32    23     2    1
    33    12    34    1
    34    12    11    1
    35     4     1    1
    36     1    11    1
    37     1    17    1
    38    74    28    1
    39    53    19    1
    40    25    67    1
    41    25    66    1
    42    52    19    1
    43     3     2    1
    44    73    28    1
    45    11    33    1
    46    11    13    1
    47    19    17    1
    48    19    51    1
    49    28    72    1
    50    28    26    1
    51     2    26    1
    52     2    20    1
    53    56    21    1
    54    49    18    1
    55    17    18    1
    56    17    47    1
    57    57    21    1
    58    21    20    1
    59    21    55    1
    60    26    68    1
    61    26    27    1
    62    18    50    1
    63    18    48    1
    64    38    13    1
    65    13    37    1
    66    13    39    1
    67    60    22    1
    68    20    22    1
    69    20    54    1
    70    71    27    1
    71    22    59    1
    72    22    58    1
    73    27    69    1
    74    27    70    1
