@<TRIPOS>MOLECULE
1,2,4,6,8,9
 44 48 0 0 0
SMALL
GASTEIGER

@<TRIPOS>ATOM
      1 C          16.7259    6.5562    7.3917 C.3     1  UNL1        0.0000
      2 C          14.0616    6.0407    8.9730 C.3     1  UNL1        0.0000
      3 H          13.0984    5.5850    9.2012 H       1  UNL1        0.0000
      4 C          16.8590    5.9246    8.7362 C.3     1  UNL1        0.0000
      5 H          17.7176    5.2729    8.8747 H       1  UNL1        0.0000
      6 B          15.7395    7.8243    7.4546 B       1  UNL1        0.0000
      7 H          15.7314    8.5923    6.5624 H       1  UNL1        0.0000
      8 B          14.2062    7.5502    8.4092 B       1  UNL1        0.0000
      9 B          15.4332    5.4244    9.4730 B       1  UNL1        0.0000
     10 H          15.4837    4.4253   10.0956 H       1  UNL1        0.0000
     11 B          17.1158    7.6618    8.6361 B       1  UNL1        0.0000
     12 H          18.2054    8.0875    8.5752 H       1  UNL1        0.0000
     13 B          14.6989    7.0880   10.1053 B       1  UNL1        0.0000
     14 H          14.0607    7.2547   11.0748 H       1  UNL1        0.0000
     15 B          16.4205    6.8917   10.0560 B       1  UNL1        0.0000
     16 H          17.0822    6.8151   11.0235 H       1  UNL1        0.0000
     17 B          15.6150    8.3181    9.2112 B       1  UNL1        0.0000
     18 H          15.5867    9.4319    9.5814 H       1  UNL1        0.0000
     19 C          17.6965    6.2002    6.3400 C.ar    1  UNL1        0.0000
     20 C          18.1377    4.8810    6.2010 C.ar    1  UNL1        0.0000
     21 H          17.7643    4.1150    6.8688 H       1  UNL1        0.0000
     22 C          19.0267    4.5312    5.2030 C.ar    1  UNL1        0.0000
     23 H          19.3506    3.5045    5.1093 H       1  UNL1        0.0000
     24 C          19.5023    5.4907    4.3244 C.ar    1  UNL1        0.0000
     25 H          20.1977    5.2164    3.5452 H       1  UNL1        0.0000
     26 C          19.0796    6.8034    4.4543 C.ar    1  UNL1        0.0000
     27 H          19.4492    7.5581    3.7754 H       1  UNL1        0.0000
     28 C          18.1893    7.1561    5.4508 C.ar    1  UNL1        0.0000
     29 H          17.8703    8.1822    5.5511 H       1  UNL1        0.0000
     30 C          12.9278    8.2512    7.9892 C.1     1  UNL1        0.0000
     31 C          11.8858    8.7430    7.6063 C.1     1  UNL1        0.0000
     32 SI         10.2911    9.4291    6.9690 Si      1  UNL1        0.0000
     33 C          10.5777   11.1732    6.2522 C.3     1  UNL1        0.0000
     34 H          10.9505   11.8501    7.0147 H       1  UNL1        0.0000
     35 H           9.6609   11.5985    5.8530 H       1  UNL1        0.0000
     36 H          11.3083   11.1516    5.4494 H       1  UNL1        0.0000
     37 C           9.6507    8.2651    5.5934 C.3     1  UNL1        0.0000
     38 H          10.3849    8.1566    4.8003 H       1  UNL1        0.0000
     39 H           8.7351    8.6394    5.1442 H       1  UNL1        0.0000
     40 H           9.4408    7.2736    5.9844 H       1  UNL1        0.0000
     41 C           9.0157    9.5058    8.3862 C.3     1  UNL1        0.0000
     42 H           8.8500    8.5237    8.8187 H       1  UNL1        0.0000
     43 H           8.0557    9.8804    8.0420 H       1  UNL1        0.0000
     44 H           9.3584   10.1593    9.1825 H       1  UNL1        0.0000
@<TRIPOS>BOND
     1    25    24    1
     2    27    26    1
     3    24    26   ar
     4    24    22   ar
     5    26    28   ar
     6    38    37    1
     7    23    22    1
     8    39    37    1
     9    22    20   ar
    10    36    33    1
    11    28    29    1
    12    28    19   ar
    13    37    40    1
    14    37    32    1
    15    35    33    1
    16    20    19   ar
    17    20    21    1
    18    33    32    1
    19    33    34    1
    20    19     1    1
    21     7     6    1
    22    32    31    1
    23    32    41    1
    24     1     6    1
    25     1    11    1
    26     1     4    1
    27    31    30    3
    28    30     8    1
    29    43    41    1
    30    41    42    1
    31    41    44    1
    32     8     2    1
    33     8    17    1
    34    12    11    1
    35    11    17    1
    36    11    15    1
    37     4     5    1
    38     4     9    1
    39     4    15    1
    40     2     3    1
    41     2     9    1
    42     2    13    1
    43    17    18    1
    44    17    13    1
    45     9    10    1
    46    15    13    1
    47    15    16    1
    48    13    14    1
