@<TRIPOS>MOLECULE
1,5
 70 70 0 0 0
SMALL
GASTEIGER

@<TRIPOS>ATOM
      1 SI         -0.3650    3.5487    3.6841 Si      1  UNL1        0.0000
      2 SI          0.3221    4.9257    5.5295 Si      1  UNL1        0.0000
      3 SI          0.7680    4.2218    1.6718 Si      1  UNL1        0.0000
      4 SI         -2.7161    3.8353    3.2745 Si      1  UNL1        0.0000
      5 N          -1.4963    0.4722    4.6652 N.pl3   1  UNL1        0.0000
      6 C          -2.6879    0.0266    5.0825 C.ar    1  UNL1        0.0000
      7 C          -3.5237   -0.7415    4.2158 C.ar    1  UNL1        0.0000
      8 C          -4.7563   -1.1735    4.6680 C.ar    1  UNL1        0.0000
      9 C          -5.2046   -0.8824    5.9446 C.ar    1  UNL1        0.0000
     10 C          -4.3893   -0.1713    6.8044 C.ar    1  UNL1        0.0000
     11 C          -3.1478    0.2846    6.4027 C.ar    1  UNL1        0.0000
     12 C          -3.0238   -1.1332    2.8439 C.3     1  UNL1        0.0000
     13 C          -4.1357   -1.4037    1.8298 C.3     1  UNL1        0.0000
     14 C          -2.1178   -2.3653    2.9706 C.3     1  UNL1        0.0000
     15 C          -2.2343    0.9688    7.3928 C.3     1  UNL1        0.0000
     16 C          -2.9338    2.0491    8.2181 C.3     1  UNL1        0.0000
     17 C          -1.6498   -0.0893    8.3361 C.3     1  UNL1        0.0000
     18 C           2.1887    5.3771    5.5810 C.3     1  UNL1        0.0000
     19 C          -0.5901    6.5913    5.2944 C.3     1  UNL1        0.0000
     20 C          -0.1587    4.3024    7.2730 C.3     1  UNL1        0.0000
     21 C          -0.1931    3.5757    0.1472 C.3     1  UNL1        0.0000
     22 C           2.5653    3.5938    1.4576 C.3     1  UNL1        0.0000
     23 C           0.8395    6.1295    1.5402 C.3     1  UNL1        0.0000
     24 C          -3.1001    5.5174    2.4301 C.3     1  UNL1        0.0000
     25 C          -3.7734    3.7490    4.8659 C.3     1  UNL1        0.0000
     26 C          -3.3639    2.4549    2.1181 C.3     1  UNL1        0.0000
     27 H          -5.3884   -1.7592    4.0192 H       1  UNL1        0.0000
     28 H          -6.1740   -1.2277    6.2718 H       1  UNL1        0.0000
     29 H          -4.7288    0.0221    7.8109 H       1  UNL1        0.0000
     30 H          -2.4127   -0.3068    2.4536 H       1  UNL1        0.0000
     31 H          -4.8566   -0.5897    1.8184 H       1  UNL1        0.0000
     32 H          -3.7050   -1.4932    0.8346 H       1  UNL1        0.0000
     33 H          -4.6570   -2.3322    2.0510 H       1  UNL1        0.0000
     34 H          -2.6812   -3.2042    3.3761 H       1  UNL1        0.0000
     35 H          -1.7251   -2.6477    1.9953 H       1  UNL1        0.0000
     36 H          -1.2833   -2.1522    3.6370 H       1  UNL1        0.0000
     37 H          -1.4191    1.4304    6.8219 H       1  UNL1        0.0000
     38 H          -2.2057    2.5657    8.8397 H       1  UNL1        0.0000
     39 H          -3.4230    2.7753    7.5755 H       1  UNL1        0.0000
     40 H          -3.6825    1.6155    8.8763 H       1  UNL1        0.0000
     41 H          -2.4424   -0.5473    8.9243 H       1  UNL1        0.0000
     42 H          -1.1554   -0.8761    7.7714 H       1  UNL1        0.0000
     43 H          -0.9311    0.3610    9.0185 H       1  UNL1        0.0000
     44 H           2.7904    4.5998    6.0402 H       1  UNL1        0.0000
     45 H           2.5780    5.5478    4.5819 H       1  UNL1        0.0000
     46 H           2.3536    6.2882    6.1501 H       1  UNL1        0.0000
     47 H          -0.3263    7.3105    6.0644 H       1  UNL1        0.0000
     48 H          -0.3482    7.0379    4.3361 H       1  UNL1        0.0000
     49 H          -1.6658    6.4570    5.3300 H       1  UNL1        0.0000
     50 H           0.2086    4.9634    8.0540 H       1  UNL1        0.0000
     51 H          -1.2375    4.2518    7.3673 H       1  UNL1        0.0000
     52 H           0.2303    3.3103    7.4761 H       1  UNL1        0.0000
     53 H          -1.2106    3.9529    0.1253 H       1  UNL1        0.0000
     54 H           0.2812    3.8591   -0.7890 H       1  UNL1        0.0000
     55 H          -0.2475    2.4907    0.1690 H       1  UNL1        0.0000
     56 H           2.6148    2.5179    1.5947 H       1  UNL1        0.0000
     57 H           2.9484    3.8112    0.4630 H       1  UNL1        0.0000
     58 H           3.2435    4.0513    2.1716 H       1  UNL1        0.0000
     59 H           1.4446    6.5571    2.3325 H       1  UNL1        0.0000
     60 H           1.2650    6.4535    0.5952 H       1  UNL1        0.0000
     61 H          -0.1515    6.5629    1.6169 H       1  UNL1        0.0000
     62 H          -2.7545    6.3508    3.0318 H       1  UNL1        0.0000
     63 H          -2.6186    5.5950    1.4607 H       1  UNL1        0.0000
     64 H          -4.1670    5.6504    2.2747 H       1  UNL1        0.0000
     65 H          -3.4599    4.4833    5.6014 H       1  UNL1        0.0000
     66 H          -4.8274    3.9193    4.6632 H       1  UNL1        0.0000
     67 H          -3.6819    2.7635    5.3112 H       1  UNL1        0.0000
     68 H          -4.1475    2.8001    1.4492 H       1  UNL1        0.0000
     69 H          -2.5642    2.0481    1.5038 H       1  UNL1        0.0000
     70 H          -3.7689    1.6396    2.7083 H       1  UNL1        0.0000
@<TRIPOS>BOND
     1    54    21    1
     2    53    21    1
     3    21    55    1
     4    21     3    1
     5    57    22    1
     6    60    23    1
     7    32    13    1
     8    68    26    1
     9    22    56    1
    10    22     3    1
    11    22    58    1
    12    63    24    1
    13    69    26    1
    14    23    61    1
    15    23     3    1
    16    23    59    1
    17     3     1    1
    18    31    13    1
    19    13    33    1
    20    13    12    1
    21    35    14    1
    22    26    70    1
    23    26     4    1
    24    64    24    1
    25    24    62    1
    26    24     4    1
    27    30    12    1
    28    12    14    1
    29    12     7    1
    30    14    34    1
    31    14    36    1
    32     4     1    1
    33     4    25    1
    34     1     2    1
    35    27     8    1
    36     7     8   ar
    37     7     6   ar
    38    48    19    1
    39    45    18    1
    40    66    25    1
    41     5     6    1
    42     8     9   ar
    43    25    67    1
    44    25    65    1
    45     6    11   ar
    46    19    49    1
    47    19     2    1
    48    19    47    1
    49     2    18    1
    50     2    20    1
    51    18    44    1
    52    18    46    1
    53     9    28    1
    54     9    10   ar
    55    11    10   ar
    56    11    15    1
    57    10    29    1
    58    37    15    1
    59    20    51    1
    60    20    52    1
    61    20    50    1
    62    15    16    1
    63    15    17    1
    64    39    16    1
    65    42    17    1
    66    16    38    1
    67    16    40    1
    68    17    41    1
    69    17    43    1
    70     1     5    0
