@<TRIPOS>MOLECULE
1,5
 49 48 0 0 0
SMALL
GASTEIGER

@<TRIPOS>ATOM
      1 SI         11.6141    2.2247   -0.5174 Si      1  UNL1        0.0000
      2 SI         11.0823   -0.0955   -0.8922 Si      1  UNL1        0.0000
      3 SI          9.9505    3.4785   -1.7674 Si      1  UNL1        0.0000
      4 SI         13.7083    2.8199   -1.5932 Si      1  UNL1        0.0000
      5 N          11.6362    4.4578    1.9911 N.3     1  UNL1        0.0000
      6 C          12.6208    5.2375    1.2750 C.3     1  UNL1        0.0000
      7 C          10.7319    5.3657    2.6551 C.3     1  UNL1        0.0000
      8 C          12.5249   -1.2654   -0.4260 C.3     1  UNL1        0.0000
      9 C          10.7028   -0.4327   -2.7419 C.3     1  UNL1        0.0000
     10 C           9.5128   -0.6130    0.0747 C.3     1  UNL1        0.0000
     11 C          10.4311    3.4507   -3.6249 C.3     1  UNL1        0.0000
     12 C           8.1732    2.7456   -1.7789 C.3     1  UNL1        0.0000
     13 C           9.7500    5.3355   -1.3157 C.3     1  UNL1        0.0000
     14 C          15.3578    2.5383   -0.6575 C.3     1  UNL1        0.0000
     15 C          13.8725    1.7767   -3.1942 C.3     1  UNL1        0.0000
     16 C          13.8048    4.6632   -2.1427 C.3     1  UNL1        0.0000
     17 H          13.4170    4.5835    0.9301 H       1  UNL1        0.0000
     18 H          13.0547    6.0202    1.9115 H       1  UNL1        0.0000
     19 H          12.1677    5.7328    0.4079 H       1  UNL1        0.0000
     20 H           9.9690    4.8035    3.1862 H       1  UNL1        0.0000
     21 H          10.2445    6.0450    1.9425 H       1  UNL1        0.0000
     22 H          11.2686    5.9915    3.3836 H       1  UNL1        0.0000
     23 H          13.4444   -0.9847   -0.9319 H       1  UNL1        0.0000
     24 H          12.3124   -2.2995   -0.6847 H       1  UNL1        0.0000
     25 H          12.7084   -1.2291    0.6425 H       1  UNL1        0.0000
     26 H          11.5500   -0.1857   -3.3704 H       1  UNL1        0.0000
     27 H           9.8582    0.1517   -3.0890 H       1  UNL1        0.0000
     28 H          10.4658   -1.4784   -2.9136 H       1  UNL1        0.0000
     29 H           9.6295   -0.3758    1.1271 H       1  UNL1        0.0000
     30 H           9.3186   -1.6800    0.0008 H       1  UNL1        0.0000
     31 H           8.6304   -0.0935   -0.2873 H       1  UNL1        0.0000
     32 H          10.4788    2.4319   -3.9927 H       1  UNL1        0.0000
     33 H          11.3966    3.9066   -3.8092 H       1  UNL1        0.0000
     34 H           9.7018    3.9796   -4.2324 H       1  UNL1        0.0000
     35 H           8.2011    1.6789   -1.9755 H       1  UNL1        0.0000
     36 H           7.5667    3.1999   -2.5586 H       1  UNL1        0.0000
     37 H           7.6524    2.8918   -0.8395 H       1  UNL1        0.0000
     38 H          10.6451    5.8984   -1.5616 H       1  UNL1        0.0000
     39 H           9.5631    5.4687   -0.2551 H       1  UNL1        0.0000
     40 H           8.9228    5.7950   -1.8506 H       1  UNL1        0.0000
     41 H          15.5306    1.4847   -0.4642 H       1  UNL1        0.0000
     42 H          15.3549    3.0517    0.2979 H       1  UNL1        0.0000
     43 H          16.2084    2.9094   -1.2246 H       1  UNL1        0.0000
     44 H          13.9095    0.7158   -2.9704 H       1  UNL1        0.0000
     45 H          14.7765    2.0236   -3.7438 H       1  UNL1        0.0000
     46 H          13.0330    1.9395   -3.8597 H       1  UNL1        0.0000
     47 H          12.8372    5.0445   -2.4484 H       1  UNL1        0.0000
     48 H          14.4810    4.7870   -2.9843 H       1  UNL1        0.0000
     49 H          14.1660    5.3005   -1.3419 H       1  UNL1        0.0000
@<TRIPOS>BOND
     1    34    11    1
     2    32    11    1
     3    46    15    1
     4    33    11    1
     5    45    15    1
     6    11     3    1
     7    26     9    1
     8    15    44    1
     9    15     4    1
    10    27     9    1
    11    48    16    1
    12    28     9    1
    13     9     2    1
    14    36    12    1
    15    47    16    1
    16    16     4    1
    17    16    49    1
    18    35    12    1
    19    40    13    1
    20    12     3    1
    21    12    37    1
    22     3    13    1
    23     3     1    1
    24     4    14    1
    25     4     1    1
    26    38    13    1
    27    13    39    1
    28    43    14    1
    29    23     8    1
    30     2     1    1
    31     2     8    1
    32     2    10    1
    33    24     8    1
    34    14    41    1
    35    14    42    1
    36     8    25    1
    37    31    10    1
    38    30    10    1
    39    10    29    1
    40    19     6    1
    41    17     6    1
    42     6    18    1
    43     6     5    1
    44    21     7    1
    45     5     7    1
    46     7    20    1
    47     7    22    1
    48     1     5    0
