@<TRIPOS>MOLECULE
1,6
 100 101 0 0 0
SMALL
GASTEIGER

@<TRIPOS>ATOM
      1 SI          9.5991    2.7488    7.1892 Si      1  UNL1        0.0000
      2 SI         10.5265    0.7402    8.1179 Si      1  UNL1        0.0000
      3 SI          7.9251    3.5863    8.7358 Si      1  UNL1        0.0000
      4 SI         11.3573    4.4006    7.0649 Si      1  UNL1        0.0000
      5 N           9.6929    3.0849    3.8875 N.pl3   1  UNL1        0.0000
      6 N           7.3390    1.6147    4.8412 N.pl3   1  UNL1        0.0000
      7 C          10.4768    3.0325    2.7980 C.ar    1  UNL1        0.0000
      8 C          10.9962    1.7985    2.3324 C.ar    1  UNL1        0.0000
      9 C          11.7674    1.7831    1.1848 C.ar    1  UNL1        0.0000
     10 C          12.0419    2.9471    0.4883 C.ar    1  UNL1        0.0000
     11 C          11.5449    4.1561    0.9426 C.ar    1  UNL1        0.0000
     12 C          10.7771    4.2241    2.0897 C.ar    1  UNL1        0.0000
     13 C          10.6578    0.5293    3.0732 C.3     1  UNL1        0.0000
     14 C          11.8415   -0.4325    3.1682 C.3     1  UNL1        0.0000
     15 C           9.4642   -0.1497    2.3932 C.3     1  UNL1        0.0000
     16 C          10.1991    5.5275    2.5846 C.3     1  UNL1        0.0000
     17 C           8.8376    5.7668    1.9221 C.3     1  UNL1        0.0000
     18 C          11.1238    6.7234    2.3670 C.3     1  UNL1        0.0000
     19 C           6.5538    0.6866    4.2639 C.ar    1  UNL1        0.0000
     20 C           6.3275   -0.5749    4.8557 C.ar    1  UNL1        0.0000
     21 C           5.4878   -1.4812    4.2325 C.ar    1  UNL1        0.0000
     22 C           4.8662   -1.1785    3.0364 C.ar    1  UNL1        0.0000
     23 C           5.0906    0.0527    2.4448 C.ar    1  UNL1        0.0000
     24 C           5.9275    0.9870    3.0241 C.ar    1  UNL1        0.0000
     25 C           6.9732   -0.9127    6.1786 C.3     1  UNL1        0.0000
     26 C           5.9039   -1.0468    7.2659 C.3     1  UNL1        0.0000
     27 C           7.8039   -2.1930    6.0824 C.3     1  UNL1        0.0000
     28 C           6.1556    2.3396    2.3896 C.3     1  UNL1        0.0000
     29 C           6.1644    2.3074    0.8625 C.3     1  UNL1        0.0000
     30 C           5.0979    3.3237    2.9039 C.3     1  UNL1        0.0000
     31 C          12.0717    1.0720    9.1969 C.3     1  UNL1        0.0000
     32 C           9.3195   -0.2334    9.2446 C.3     1  UNL1        0.0000
     33 C          11.0876   -0.4230    6.7093 C.3     1  UNL1        0.0000
     34 C           6.2122    2.9454    8.1554 C.3     1  UNL1        0.0000
     35 C           8.1401    3.0648   10.5624 C.3     1  UNL1        0.0000
     36 C           7.8355    5.5012    8.7797 C.3     1  UNL1        0.0000
     37 C          12.2490    4.7717    8.7180 C.3     1  UNL1        0.0000
     38 C          10.6998    6.1052    6.4718 C.3     1  UNL1        0.0000
     39 C          12.6726    3.8161    5.8036 C.3     1  UNL1        0.0000
     40 H          12.1546    0.8466    0.8137 H       1  UNL1        0.0000
     41 H          12.6384    2.9119   -0.4112 H       1  UNL1        0.0000
     42 H          11.7610    5.0563    0.3879 H       1  UNL1        0.0000
     43 H          10.3405    0.8134    4.0929 H       1  UNL1        0.0000
     44 H          11.6024   -1.2503    3.8434 H       1  UNL1        0.0000
     45 H          12.7233    0.0818    3.5432 H       1  UNL1        0.0000
     46 H          12.0777   -0.8604    2.1971 H       1  UNL1        0.0000
     47 H           9.1927   -1.0613    2.9207 H       1  UNL1        0.0000
     48 H           9.7056   -0.4017    1.3624 H       1  UNL1        0.0000
     49 H           8.6049    0.5180    2.4013 H       1  UNL1        0.0000
     50 H          10.0330    5.4192    3.6665 H       1  UNL1        0.0000
     51 H           8.3979    6.6961    2.2806 H       1  UNL1        0.0000
     52 H           8.1583    4.9452    2.1557 H       1  UNL1        0.0000
     53 H           8.9473    5.8270    0.8408 H       1  UNL1        0.0000
     54 H          10.7430    7.5871    2.9088 H       1  UNL1        0.0000
     55 H          11.1844    6.9901    1.3146 H       1  UNL1        0.0000
     56 H          12.1250    6.5014    2.7295 H       1  UNL1        0.0000
     57 H           5.3097   -2.4423    4.6918 H       1  UNL1        0.0000
     58 H           4.2088   -1.8945    2.5664 H       1  UNL1        0.0000
     59 H           4.5998    0.2833    1.5119 H       1  UNL1        0.0000
     60 H           7.6467   -0.0849    6.4456 H       1  UNL1        0.0000
     61 H           6.3621   -1.2516    8.2315 H       1  UNL1        0.0000
     62 H           5.2216   -1.8611    7.0335 H       1  UNL1        0.0000
     63 H           5.3234   -0.1298    7.3403 H       1  UNL1        0.0000
     64 H           8.3523   -2.3538    7.0074 H       1  UNL1        0.0000
     65 H           8.5160   -2.1202    5.2636 H       1  UNL1        0.0000
     66 H           7.1681   -3.0569    5.9054 H       1  UNL1        0.0000
     67 H           7.1490    2.6985    2.7214 H       1  UNL1        0.0000
     68 H           6.5153    3.2621    0.4756 H       1  UNL1        0.0000
     69 H           5.1675    2.1318    0.4649 H       1  UNL1        0.0000
     70 H           6.8290    1.5259    0.5015 H       1  UNL1        0.0000
     71 H           5.2762    4.3228    2.5081 H       1  UNL1        0.0000
     72 H           5.1197    3.3685    3.9951 H       1  UNL1        0.0000
     73 H           4.1044    3.0006    2.5975 H       1  UNL1        0.0000
     74 H          12.8755    1.5052    8.6110 H       1  UNL1        0.0000
     75 H          12.4505    0.1560    9.6416 H       1  UNL1        0.0000
     76 H          11.8471    1.7576   10.0072 H       1  UNL1        0.0000
     77 H           8.2985   -0.1635    8.8867 H       1  UNL1        0.0000
     78 H           9.3384    0.1512   10.2589 H       1  UNL1        0.0000
     79 H           9.5785   -1.2874    9.2952 H       1  UNL1        0.0000
     80 H          10.2728   -0.6087    6.0168 H       1  UNL1        0.0000
     81 H          11.4366   -1.3842    7.0771 H       1  UNL1        0.0000
     82 H          11.8997    0.0261    6.1467 H       1  UNL1        0.0000
     83 H           6.0802    1.9007    8.4208 H       1  UNL1        0.0000
     84 H           6.1149    3.0164    7.0668 H       1  UNL1        0.0000
     85 H           5.3858    3.4992    8.5943 H       1  UNL1        0.0000
     86 H           7.9421    2.0086   10.7023 H       1  UNL1        0.0000
     87 H           7.4668    3.6124   11.2156 H       1  UNL1        0.0000
     88 H           9.1519    3.2567   10.9031 H       1  UNL1        0.0000
     89 H           7.7242    5.9233    7.7848 H       1  UNL1        0.0000
     90 H           8.7389    5.9206    9.2124 H       1  UNL1        0.0000
     91 H           6.9962    5.8521    9.3757 H       1  UNL1        0.0000
     92 H          12.8486    3.9312    9.0463 H       1  UNL1        0.0000
     93 H          11.5365    4.9920    9.5068 H       1  UNL1        0.0000
     94 H          12.9109    5.6283    8.6278 H       1  UNL1        0.0000
     95 H           9.8157    5.9915    5.8454 H       1  UNL1        0.0000
     96 H          11.4399    6.6471    5.8883 H       1  UNL1        0.0000
     97 H          10.4198    6.7362    7.3103 H       1  UNL1        0.0000
     98 H          12.2129    3.5909    4.8446 H       1  UNL1        0.0000
     99 H          13.1663    2.9118    6.1462 H       1  UNL1        0.0000
    100 H          13.4432    4.5630    5.6317 H       1  UNL1        0.0000
@<TRIPOS>BOND
     1    41    10    1
     2    42    11    1
     3    69    29    1
     4    68    29    1
     5    10    11   ar
     6    10     9   ar
     7    70    29    1
     8    40     9    1
     9    53    17    1
    10    29    28    1
    11    11    12   ar
    12     9     8   ar
    13    55    18    1
    14    48    15    1
    15    59    23    1
    16    17    52    1
    17    17    51    1
    18    17    16    1
    19    12    16    1
    20    12     7   ar
    21    46    14    1
    22     8     7   ar
    23     8    13    1
    24    18    16    1
    25    18    56    1
    26    18    54    1
    27    28    67    1
    28    28    30    1
    29    28    24    1
    30    15    49    1
    31    15    47    1
    32    15    13    1
    33    23    24   ar
    34    23    22   ar
    35    71    30    1
    36    58    22    1
    37    16    50    1
    38    73    30    1
    39     7     5    1
    40    30    72    1
    41    24    19   ar
    42    22    21   ar
    43    13    14    1
    44    13    43    1
    45    14    45    1
    46    14    44    1
    47    21    57    1
    48    21    20   ar
    49    19     6    1
    50    19    20   ar
    51    98    39    1
    52    20    25    1
    53    65    27    1
    54   100    39    1
    55    39    99    1
    56    39     4    1
    57    95    38    1
    58    96    38    1
    59    66    27    1
    60    80    33    1
    61    27    25    1
    62    27    64    1
    63    82    33    1
    64    25    60    1
    65    25    26    1
    66    38     4    1
    67    38    97    1
    68    33    81    1
    69    33     2    1
    70    62    26    1
    71     4     1    1
    72     4    37    1
    73    84    34    1
    74     1     2    1
    75     1     3    1
    76    26    63    1
    77    26    61    1
    78    89    36    1
    79     2    31    1
    80     2    32    1
    81    34    83    1
    82    34    85    1
    83    34     3    1
    84    74    31    1
    85    94    37    1
    86    37    92    1
    87    37    93    1
    88     3    36    1
    89     3    35    1
    90    36    90    1
    91    36    91    1
    92    77    32    1
    93    31    75    1
    94    31    76    1
    95    32    79    1
    96    32    78    1
    97    35    86    1
    98    35    88    1
    99    35    87    1
   100     1     5    0
   101     1     6    0
