@<TRIPOS>MOLECULE
1,2,3,4,5
 10 10 0 0 0
SMALL
GASTEIGER

@<TRIPOS>ATOM
      1 C           5.5709  -10.6135   -1.6822 C.2     1  UNL1       -0.0763
      2 C           4.6134  -11.6407   -1.8131 C.3     1  UNL1        0.0054
      3 C           4.8097  -12.2671   -3.0676 C.2     1  UNL1       -0.0763
      4 C           5.8808  -11.6093   -3.7183 C.2     1  UNL1       -0.0654
      5 C           6.3545  -10.5932   -2.8599 C.2     1  UNL1       -0.0654
      6 H           5.6353   -9.9000   -0.8691 H       1  UNL1        0.0578
      7 H           3.7849  -11.8218   -1.1394 H       1  UNL1        0.0394
      8 H           4.1466  -12.9931   -3.5208 H       1  UNL1        0.0578
      9 H           6.2042  -11.7709   -4.7405 H       1  UNL1        0.0615
     10 H           7.1270   -9.8699   -3.0958 H       1  UNL1        0.0615
@<TRIPOS>BOND
     1     9     4    1
     2     4     3    2
     3     4     5    1
     4     8     3    1
     5    10     5    1
     6     3     2    1
     7     5     1    2
     8     2     1    1
     9     2     7    1
    10     1     6    1
