@<TRIPOS>MOLECULE
3,4,5,6,7
 46 48 0 0 0
SMALL
GASTEIGER

@<TRIPOS>ATOM
      1 SI          6.7945  -16.2367   -2.8665 Si      1  UNL1        0.0000
      2 O           5.8265  -17.5435   -2.7431 O.3     1  UNL1        0.0000
      3 C           7.0653  -13.8977    0.5491 C.2     1  UNL1        0.0000
      4 C           7.6475  -14.6898   -0.4596 C.3     1  UNL1        0.0000
      5 C           6.6267  -15.0951   -1.3689 C.3     1  UNL1        0.0000
      6 C           5.4121  -14.5158   -0.8993 C.3     1  UNL1        0.0000
      7 C           5.6877  -13.7728    0.2708 C.2     1  UNL1        0.0000
      8 C           8.6234  -16.7199   -3.0939 C.3     1  UNL1        0.0000
      9 C           6.0286  -15.3245   -4.3553 C.3     1  UNL1        0.0000
     10 C           6.0678  -18.7930   -2.1579 C.3     1  UNL1        0.0000
     11 C           5.5465  -19.9442   -3.0444 C.3     1  UNL1        0.0000
     12 C           4.0527  -19.6884   -3.3053 C.3     1  UNL1        0.0000
     13 C           3.3814  -20.0809   -1.9761 C.3     1  UNL1        0.0000
     14 C           4.5793  -20.3381   -1.0562 C.3     1  UNL1        0.0000
     15 C           5.3506  -19.0225   -0.7908 C.3     1  UNL1        0.0000
     16 C           5.5045  -21.0817   -2.0208 C.3     1  UNL1        0.0000
     17 C           6.3754  -20.1584   -4.2948 C.3     1  UNL1        0.0000
     18 C           6.3770  -19.2166    0.3281 C.3     1  UNL1        0.0000
     19 C           4.4485  -17.8553   -0.3960 C.3     1  UNL1        0.0000
     20 H           7.5719  -13.5090    1.4237 H       1  UNL1        0.0000
     21 H           8.6827  -15.0135   -0.4904 H       1  UNL1        0.0000
     22 H           4.4264  -14.7386   -1.2909 H       1  UNL1        0.0000
     23 H           4.9573  -13.3059    0.9211 H       1  UNL1        0.0000
     24 H           8.7333  -17.4195   -3.9175 H       1  UNL1        0.0000
     25 H           9.0257  -17.1978   -2.2044 H       1  UNL1        0.0000
     26 H           9.2381  -15.8529   -3.3107 H       1  UNL1        0.0000
     27 H           6.2400  -15.8384   -5.2871 H       1  UNL1        0.0000
     28 H           6.4407  -14.3196   -4.4303 H       1  UNL1        0.0000
     29 H           4.9479  -15.2585   -4.2660 H       1  UNL1        0.0000
     30 H           7.1478  -18.9142   -2.0252 H       1  UNL1        0.0000
     31 H           3.6964  -20.3033   -4.1316 H       1  UNL1        0.0000
     32 H           3.8913  -18.6433   -3.5619 H       1  UNL1        0.0000
     33 H           2.8080  -21.0026   -2.0883 H       1  UNL1        0.0000
     34 H           2.7067  -19.3185   -1.5970 H       1  UNL1        0.0000
     35 H           4.3180  -20.8650   -0.1391 H       1  UNL1        0.0000
     36 H           6.4832  -21.3179   -1.6094 H       1  UNL1        0.0000
     37 H           5.0552  -21.9892   -2.4199 H       1  UNL1        0.0000
     38 H           6.3565  -19.2594   -4.9066 H       1  UNL1        0.0000
     39 H           5.9810  -20.9881   -4.8773 H       1  UNL1        0.0000
     40 H           7.4084  -20.3790   -4.0336 H       1  UNL1        0.0000
     41 H           5.8689  -19.3609    1.2793 H       1  UNL1        0.0000
     42 H           7.0105  -18.3356    0.4088 H       1  UNL1        0.0000
     43 H           7.0107  -20.0806    0.1460 H       1  UNL1        0.0000
     44 H           3.8748  -17.4960   -1.2432 H       1  UNL1        0.0000
     45 H           5.0547  -17.0311   -0.0289 H       1  UNL1        0.0000
     46 H           3.7684  -18.1643    0.3949 H       1  UNL1        0.0000
@<TRIPOS>BOND
     1    27     9    1
     2    38    17    1
     3    39    17    1
     4    28     9    1
     5     9    29    1
     6     9     1    1
     7    17    40    1
     8    17    11    1
     9    31    12    1
    10    24     8    1
    11    32    12    1
    12    26     8    1
    13    12    11    1
    14    12    13    1
    15     8     1    1
    16     8    25    1
    17    11    10    1
    18    11    16    1
    19     1     2    1
    20     1     5    1
    21     2    10    1
    22    37    16    1
    23    10    30    1
    24    10    15    1
    25    33    13    1
    26    16    36    1
    27    16    14    1
    28    13    34    1
    29    13    14    1
    30     5     6    1
    31     5     4    1
    32    22     6    1
    33    44    19    1
    34    14    15    1
    35    14    35    1
    36     6     7    1
    37    15    19    1
    38    15    18    1
    39    21     4    1
    40     4     3    1
    41    19    45    1
    42    19    46    1
    43    43    18    1
    44     7     3    2
    45     7    23    1
    46    18    42    1
    47    18    41    1
    48     3    20    1
