@<TRIPOS>MOLECULE
3,4,6,7,9
 34 34 0 0 0
SMALL
GASTEIGER

@<TRIPOS>ATOM
      1 SI          6.6619    2.9728    7.3369 Si      1  UNL1        0.0000
      2 SI         12.4199    3.7492    7.7512 Si      1  UNL1        0.0000
      3 C          10.5765    4.0002    8.0037 C.3     1  UNL1        0.0000
      4 C           9.5667    3.0697    7.6709 C.3     1  UNL1        0.0000
      5 H           9.7271    2.1567    7.1073 H       1  UNL1        0.0000
      6 C           8.2931    3.6045    8.0154 C.3     1  UNL1        0.0000
      7 C           8.5425    4.8962    8.5637 C.2     1  UNL1        0.0000
      8 H           7.7798    5.6300    8.7936 H       1  UNL1        0.0000
      9 C           9.9239    5.1270    8.5726 C.2     1  UNL1        0.0000
     10 H          10.4121    6.0544    8.8504 H       1  UNL1        0.0000
     11 C           6.4988    1.0750    7.5322 C.3     1  UNL1        0.0000
     12 H           7.3102    0.5566    7.0299 H       1  UNL1        0.0000
     13 H           5.5717    0.7271    7.0872 H       1  UNL1        0.0000
     14 H           6.4992    0.7611    8.5722 H       1  UNL1        0.0000
     15 C           5.1518    3.8187    8.1496 C.3     1  UNL1        0.0000
     16 H           5.0219    3.5290    9.1869 H       1  UNL1        0.0000
     17 H           4.2429    3.5485    7.6212 H       1  UNL1        0.0000
     18 H           5.2342    4.9004    8.1132 H       1  UNL1        0.0000
     19 C           6.6106    3.3686    5.4633 C.3     1  UNL1        0.0000
     20 H           6.6572    4.4383    5.2843 H       1  UNL1        0.0000
     21 H           5.6984    2.9979    5.0066 H       1  UNL1        0.0000
     22 H           7.4479    2.9162    4.9410 H       1  UNL1        0.0000
     23 C          12.8582    1.9760    8.3220 C.3     1  UNL1        0.0000
     24 H          13.9228    1.7774    8.2413 H       1  UNL1        0.0000
     25 H          12.3422    1.2268    7.7267 H       1  UNL1        0.0000
     26 H          12.5687    1.8397    9.3634 H       1  UNL1        0.0000
     27 C          13.4030    5.0286    8.7747 C.3     1  UNL1        0.0000
     28 H          13.1488    4.9431    9.8276 H       1  UNL1        0.0000
     29 H          13.1934    6.0462    8.4589 H       1  UNL1        0.0000
     30 H          14.4728    4.8720    8.6792 H       1  UNL1        0.0000
     31 C          12.8582    3.9409    5.8990 C.3     1  UNL1        0.0000
     32 H          13.9155    3.7655    5.7328 H       1  UNL1        0.0000
     33 H          12.6294    4.9381    5.5384 H       1  UNL1        0.0000
     34 H          12.3069    3.2371    5.2844 H       1  UNL1        0.0000
@<TRIPOS>BOND
     1    22    19    1
     2    21    19    1
     3    20    19    1
     4    34    31    1
     5    19     1    1
     6    33    31    1
     7    32    31    1
     8    31     2    1
     9    12    11    1
    10    13    11    1
    11     5     4    1
    12     1    11    1
    13     1     6    1
    14     1    15    1
    15    11    14    1
    16    17    15    1
    17     4     3    1
    18     4     6    1
    19    25    23    1
    20     2     3    1
    21     2    23    1
    22     2    27    1
    23     3     9    1
    24     6     7    1
    25    18    15    1
    26    15    16    1
    27    24    23    1
    28    23    26    1
    29    29    27    1
    30     7     9    2
    31     7     8    1
    32     9    10    1
    33    30    27    1
    34    27    28    1
