@<TRIPOS>MOLECULE
1,2,3,4,5
 25 25 0 0 0
SMALL
GASTEIGER

@<TRIPOS>ATOM
      1 C           2.6305   18.1277    6.4752 C.2     1  UNL1       -0.0658
      2 C           3.1094   18.2797    5.1565 C.2     1  UNL1       -0.0658
      3 C           4.1328   17.2850    4.9299 C.3     1  UNL1        0.0052
      4 C           4.3358   16.5877    6.1688 C.3     1  UNL1       -0.0053
      5 C           3.3621   17.0475    7.0969 C.3     1  UNL1        0.0052
      6 C           1.7592   19.1155    7.1905 C.3     1  UNL1       -0.0430
      7 H           2.3688   19.9644    7.5106 H       1  UNL1        0.0275
      8 H           1.2932   18.6816    8.0720 H       1  UNL1        0.0275
      9 H           0.9657   19.4933    6.5476 H       1  UNL1        0.0275
     10 C           2.7962   19.4095    4.2198 C.3     1  UNL1       -0.0430
     11 H           1.8342   19.8613    4.4540 H       1  UNL1        0.0275
     12 H           2.7768   19.0734    3.1842 H       1  UNL1        0.0275
     13 H           3.5644   20.1817    4.3094 H       1  UNL1        0.0275
     14 C           5.0842   17.3294    3.7668 C.3     1  UNL1       -0.0545
     15 H           5.6596   16.4106    3.6854 H       1  UNL1        0.0239
     16 H           5.7814   18.1609    3.8972 H       1  UNL1        0.0239
     17 H           4.5504   17.4791    2.8296 H       1  UNL1        0.0239
     18 C           5.5075   15.7311    6.5383 C.3     1  UNL1       -0.0574
     19 H           6.1656   16.2993    7.2005 H       1  UNL1        0.0236
     20 H           6.0779   15.4341    5.6634 H       1  UNL1        0.0236
     21 H           5.1960   14.8311    7.0654 H       1  UNL1        0.0236
     22 C           3.4483   16.7866    8.5752 C.3     1  UNL1       -0.0545
     23 H           3.5273   15.7205    8.7881 H       1  UNL1        0.0239
     24 H           2.5832   17.1842    9.1003 H       1  UNL1        0.0239
     25 H           4.3401   17.2737    8.9799 H       1  UNL1        0.0239
@<TRIPOS>BOND
     1    17    14    1
     2    12    10    1
     3    15    14    1
     4    14    16    1
     5    14     3    1
     6    10    13    1
     7    10    11    1
     8    10     2    1
     9     3     2    1
    10     3     4    1
    11     2     1    2
    12    20    18    1
    13     4    18    1
    14     4     5    1
    15     1     5    1
    16     1     6    1
    17    18    21    1
    18    18    19    1
    19     9     6    1
    20     5    22    1
    21     6     7    1
    22     6     8    1
    23    22    23    1
    24    22    25    1
    25    22    24    1
