@<TRIPOS>MOLECULE
1,2,3,4,5
 25 25 0 0 0
SMALL
GASTEIGER

@<TRIPOS>ATOM
      1 C          15.8468   10.4951   12.0197 C.3     1  UNL1        0.0231
      2 C          14.4515   10.7358   12.2690 C.2     1  UNL1       -0.0584
      3 C          13.8906   11.2834   11.0786 C.2     1  UNL1       -0.0477
      4 C          14.8995   11.3064   10.0674 C.2     1  UNL1       -0.0477
      5 C          16.1259   10.8599   10.6613 C.2     1  UNL1       -0.0584
      6 C          16.8797   10.1973   13.0665 C.3     1  UNL1       -0.0510
      7 H          17.7461    9.6994   12.6349 H       1  UNL1        0.0242
      8 H          16.4769    9.5622   13.8532 H       1  UNL1        0.0242
      9 H          17.2145   11.1323   13.5224 H       1  UNL1        0.0242
     10 C          13.8175   10.7557   13.6309 C.3     1  UNL1       -0.0424
     11 H          13.9887   11.7261   14.1040 H       1  UNL1        0.0275
     12 H          14.2434    9.9863   14.2723 H       1  UNL1        0.0275
     13 H          12.7447   10.5845   13.5695 H       1  UNL1        0.0275
     14 C          12.5414   11.9126   10.9245 C.3     1  UNL1       -0.0395
     15 H          11.9795   11.8680   11.8538 H       1  UNL1        0.0278
     16 H          11.9594   11.4117   10.1492 H       1  UNL1        0.0278
     17 H          12.6634   12.9585   10.6367 H       1  UNL1        0.0278
     18 C          14.7578   12.0185    8.7521 C.3     1  UNL1       -0.0395
     19 H          14.8869   13.0946    8.8951 H       1  UNL1        0.0278
     20 H          13.7715   11.8438    8.3264 H       1  UNL1        0.0278
     21 H          15.5028   11.6780    8.0357 H       1  UNL1        0.0278
     22 C          17.4968   10.9893   10.0665 C.3     1  UNL1       -0.0424
     23 H          17.9508   11.9249   10.4014 H       1  UNL1        0.0275
     24 H          17.4541   11.0017    8.9800 H       1  UNL1        0.0275
     25 H          18.1427   10.1691   10.3764 H       1  UNL1        0.0275
@<TRIPOS>BOND
     1    21    18    1
     2    20    18    1
     3    18    19    1
     4    18     4    1
     5    24    22    1
     6    22    25    1
     7    22    23    1
     8    22     5    1
     9     4     5    2
    10     4     3    1
    11    16    14    1
    12    17    14    1
    13     5     1    1
    14    14     3    1
    15    14    15    1
    16     3     2    2
    17     1     2    1
    18     1     6    1
    19     2    10    1
    20     7     6    1
    21     6     9    1
    22     6     8    1
    23    13    10    1
    24    10    11    1
    25    10    12    1
