@<TRIPOS>MOLECULE
1,3,5,7,9
 10 10 0 0 0
SMALL
GASTEIGER

@<TRIPOS>ATOM
      1 C          -0.3781    9.3180    7.5231 C.2     1  UNL1       -0.0763
      2 H           0.0277   10.3139    7.3882 H       1  UNL1        0.0578
      3 C          -0.0592    8.1923    6.7397 C.2     1  UNL1       -0.0654
      4 H           0.6545    8.1646    5.9261 H       1  UNL1        0.0615
      5 C          -0.9358    7.1456    7.1013 C.2     1  UNL1       -0.0654
      6 H          -1.0152    6.1837    6.6092 H       1  UNL1        0.0615
      7 C          -1.7959    7.6245    8.1159 C.2     1  UNL1       -0.0763
      8 H          -2.6602    7.0967    8.5045 H       1  UNL1        0.0578
      9 C          -1.4456    8.9711    8.3820 C.3     1  UNL1        0.0054
     10 H          -2.0041    9.6647    9.0035 H       1  UNL1        0.0394
@<TRIPOS>BOND
     1     4     3    1
     2     6     5    1
     3     3     5    1
     4     3     1    2
     5     5     7    2
     6     2     1    1
     7     1     9    1
     8     7     9    1
     9     7     8    1
    10     9    10    1
