@<TRIPOS>MOLECULE
1,3,5,7,9
 10 10 0 0 0
SMALL
GASTEIGER

@<TRIPOS>ATOM
      1 C           2.7689    7.9466   10.0317 C.2     1  UNL1       -0.0763
      2 H           3.6309    7.3426    9.7739 H       1  UNL1        0.0578
      3 C           2.3746    9.1395    9.3842 C.3     1  UNL1        0.0054
      4 H           2.8907    9.6010    8.5492 H       1  UNL1        0.0394
      5 C           1.3134    9.7066   10.1268 C.2     1  UNL1       -0.0763
      6 H           0.8843   10.6908    9.9738 H       1  UNL1        0.0578
      7 C           1.0378    8.8559   11.2188 C.2     1  UNL1       -0.0654
      8 H           0.3569    9.0673   12.0358 H       1  UNL1        0.0615
      9 C           1.9413    7.7696   11.1628 C.2     1  UNL1       -0.0654
     10 H           2.0549    7.0013   11.9184 H       1  UNL1        0.0615
@<TRIPOS>BOND
     1     4     3    1
     2     3     1    1
     3     3     5    1
     4     2     1    1
     5     6     5    1
     6     1     9    2
     7     5     7    2
     8     9     7    1
     9     9    10    1
    10     7     8    1
