@<TRIPOS>MOLECULE
1,2,3,4,5
 25 25 0 0 0
SMALL
GASTEIGER

@<TRIPOS>ATOM
      1 C           1.6293   10.9335    8.4091 C.2     1  UNL1       -0.0477
      2 C           0.6607   10.1554    9.1032 C.2     1  UNL1       -0.0584
      3 C           0.8768    8.7847    8.7739 C.3     1  UNL1        0.0231
      4 C           1.9617    8.7212    7.8473 C.2     1  UNL1       -0.0584
      5 C           2.4153   10.0414    7.6158 C.2     1  UNL1       -0.0477
      6 C           1.6400   12.4306    8.2817 C.3     1  UNL1       -0.0395
      7 H           0.9585   12.7499    7.4864 H       1  UNL1        0.0278
      8 H           2.6364   12.7957    8.0358 H       1  UNL1        0.0278
      9 H           1.3284   12.9101    9.2066 H       1  UNL1        0.0278
     10 C          -0.5587   10.6833    9.8055 C.3     1  UNL1       -0.0424
     11 H          -1.4570   10.3951    9.2528 H       1  UNL1        0.0275
     12 H          -0.5335   11.7689    9.8580 H       1  UNL1        0.0275
     13 H          -0.6503   10.2942   10.8191 H       1  UNL1        0.0275
     14 C          -0.0539    7.6447    9.0753 C.3     1  UNL1       -0.0510
     15 H           0.4809    6.7746    9.4592 H       1  UNL1        0.0242
     16 H          -0.5774    7.3361    8.1654 H       1  UNL1        0.0242
     17 H          -0.8000    7.9409    9.8097 H       1  UNL1        0.0242
     18 C           2.3861    7.4823    7.1110 C.3     1  UNL1       -0.0424
     19 H           1.7518    7.3206    6.2334 H       1  UNL1        0.0275
     20 H           2.3032    6.6037    7.7508 H       1  UNL1        0.0275
     21 H           3.4192    7.5569    6.7718 H       1  UNL1        0.0275
     22 C           3.3653   10.4615    6.5317 C.3     1  UNL1       -0.0395
     23 H           2.8068   10.6874    5.6183 H       1  UNL1        0.0278
     24 H           4.0799    9.6729    6.3016 H       1  UNL1        0.0278
     25 H           3.9252   11.3532    6.8112 H       1  UNL1        0.0278
@<TRIPOS>BOND
     1    23    22    1
     2    19    18    1
     3    24    22    1
     4    22    25    1
     5    22     5    1
     6    21    18    1
     7    18    20    1
     8    18     4    1
     9     7     6    1
    10     5     4    2
    11     5     1    1
    12     4     3    1
    13     8     6    1
    14    16    14    1
    15     6     1    1
    16     6     9    1
    17     1     2    2
    18     3    14    1
    19     3     2    1
    20    14    15    1
    21    14    17    1
    22     2    10    1
    23    11    10    1
    24    10    12    1
    25    10    13    1
