@<TRIPOS>MOLECULE
1,3,5,7,9
 10 10 0 0 0
SMALL
GASTEIGER

@<TRIPOS>ATOM
      1 C           6.2755   10.0635    6.7861 C.3     1  UNL1       -0.0127
      2 H           6.8153   10.9688    6.5439 H       1  UNL1        0.0352
      3 C           5.9977    9.6140    8.1178 C.3     1  UNL1       -0.0235
      4 H           6.2800   10.1315    9.0268 H       1  UNL1        0.0315
      5 C           5.5000    8.2967    8.0268 C.3     1  UNL1       -0.0127
      6 H           5.3342    7.6163    8.8504 H       1  UNL1        0.0352
      7 C           5.4948    7.9300    6.6558 C.2     1  UNL1       -0.0837
      8 H           5.2560    6.9441    6.2808 H       1  UNL1        0.0572
      9 C           6.0074    8.9922    5.9000 C.2     1  UNL1       -0.0837
     10 H           6.2492    8.9583    4.8505 H       1  UNL1        0.0572
@<TRIPOS>BOND
     1    10     9    1
     2     9     7    2
     3     9     1    1
     4     8     7    1
     5     2     1    1
     6     7     5    1
     7     1     3    1
     8     5     3    1
     9     5     6    1
    10     3     4    1
