@<TRIPOS>MOLECULE
1,3,5,7,9
 10 10 0 0 0
SMALL
GASTEIGER

@<TRIPOS>ATOM
      1 C           4.8259    5.9259    4.4914 C.2     1  UNL1       -0.0654
      2 H           4.0008    5.4100    4.9645 H       1  UNL1        0.0615
      3 C           5.1010    7.2984    4.6130 C.2     1  UNL1       -0.0763
      4 H           4.5436    8.0113    5.2017 H       1  UNL1        0.0578
      5 C           6.3186    7.5550    3.9386 C.3     1  UNL1        0.0054
      6 H           6.8559    8.4946    3.9518 H       1  UNL1        0.0394
      7 C           6.8335    6.3069    3.4725 C.2     1  UNL1       -0.0763
      8 H           7.8289    6.1470    3.0920 H       1  UNL1        0.0578
      9 C           5.9070    5.3051    3.8089 C.2     1  UNL1       -0.0654
     10 H           6.0624    4.2420    3.7152 H       1  UNL1        0.0615
@<TRIPOS>BOND
     1     8     7    1
     2     7     9    2
     3     7     5    1
     4    10     9    1
     5     9     1    1
     6     5     6    1
     7     5     3    1
     8     1     3    2
     9     1     2    1
    10     3     4    1
