@<TRIPOS>MOLECULE
1,3,5,7,9
 10 10 0 0 0
SMALL
GASTEIGER

@<TRIPOS>ATOM
      1 C           2.5737    3.0164    0.9820 C.3     1  UNL1       -0.0235
      2 H           2.0207    3.6596    0.3090 H       1  UNL1        0.0315
      3 C           2.5054    1.6058    1.0315 C.3     1  UNL1       -0.0127
      4 H           1.8704    0.9756    0.4249 H       1  UNL1        0.0352
      5 C           3.5292    1.1551    1.9007 C.2     1  UNL1       -0.0837
      6 H           3.7832    0.1194    2.0843 H       1  UNL1        0.0572
      7 C           4.2540    2.2679    2.3701 C.2     1  UNL1       -0.0837
      8 H           5.1567    2.2341    2.9627 H       1  UNL1        0.0572
      9 C           3.6540    3.4303    1.8294 C.3     1  UNL1       -0.0127
     10 H           4.0505    4.4360    1.8977 H       1  UNL1        0.0352
@<TRIPOS>BOND
     1     2     1    1
     2     4     3    1
     3     1     3    1
     4     1     9    1
     5     3     5    1
     6     9    10    1
     7     9     7    1
     8     5     6    1
     9     5     7    2
    10     7     8    1
