@<TRIPOS>MOLECULE
1,3,5,7,9
 10 10 0 0 0
SMALL
GASTEIGER

@<TRIPOS>ATOM
      1 C           5.4660    5.2785   15.7801 C.2     1  UNL1       -0.0763
      2 H           4.6150    4.9344   15.2098 H       1  UNL1        0.0578
      3 C           6.4748    6.1546   15.3162 C.2     1  UNL1       -0.0654
      4 H           6.5363    6.5765   14.3205 H       1  UNL1        0.0615
      5 C           7.5087    6.1733   16.2860 C.2     1  UNL1       -0.0654
      6 H           8.4870    6.6145   16.1530 H       1  UNL1        0.0615
      7 C           7.1270    5.3217   17.3445 C.2     1  UNL1       -0.0763
      8 H           7.7548    5.0268   18.1718 H       1  UNL1        0.0578
      9 C           5.8593    4.7817   17.0401 C.3     1  UNL1        0.0054
     10 H           5.3570    3.9987   17.5916 H       1  UNL1        0.0394
@<TRIPOS>BOND
     1     4     3    1
     2     2     1    1
     3     3     1    2
     4     3     5    1
     5     1     9    1
     6     6     5    1
     7     5     7    2
     8     9     7    1
     9     9    10    1
    10     7     8    1
