@<TRIPOS>MOLECULE
1,2,3,4,5
 25 25 0 0 0
SMALL
GASTEIGER

@<TRIPOS>ATOM
      1 C           0.5222    6.4555   14.6347 C.3     1  UNL1       -0.0127
      2 C           1.3516    6.0171   15.7119 C.3     1  UNL1       -0.0127
      3 C           0.5471    5.2374   16.5938 C.3     1  UNL1       -0.0127
      4 C          -0.7824    5.2342   16.0929 C.3     1  UNL1       -0.0127
      5 C          -0.8101    6.0194   14.9020 C.3     1  UNL1       -0.0127
      6 C           0.8548    7.6134   13.7368 C.3     1  UNL1       -0.0580
      7 H           0.2666    7.5925   12.8210 H       1  UNL1        0.0236
      8 H           1.9102    7.6256   13.4716 H       1  UNL1        0.0236
      9 H           0.6280    8.5476   14.2600 H       1  UNL1        0.0236
     10 C           2.6591    6.6566   16.0693 C.3     1  UNL1       -0.0580
     11 H           3.3182    6.7513   15.2091 H       1  UNL1        0.0236
     12 H           3.1718    6.1026   16.8515 H       1  UNL1        0.0236
     13 H           2.4582    7.6623   16.4501 H       1  UNL1        0.0236
     14 C           0.9754    4.7190   17.9347 C.3     1  UNL1       -0.0580
     15 H           0.8399    5.4912   18.6959 H       1  UNL1        0.0236
     16 H           2.0244    4.4267   17.9271 H       1  UNL1        0.0236
     17 H           0.3872    3.8500   18.2268 H       1  UNL1        0.0236
     18 C          -1.9874    4.7158   16.8205 C.3     1  UNL1       -0.0580
     19 H          -1.7369    3.8468   17.4275 H       1  UNL1        0.0236
     20 H          -2.7713    4.4230   16.1239 H       1  UNL1        0.0236
     21 H          -2.3869    5.4878   17.4828 H       1  UNL1        0.0236
     22 C          -2.0279    6.6713   14.3199 C.3     1  UNL1       -0.0580
     23 H          -2.0971    7.6875   14.7193 H       1  UNL1        0.0236
     24 H          -2.9350    6.1429   14.6011 H       1  UNL1        0.0236
     25 H          -1.9798    6.7424   13.2355 H       1  UNL1        0.0236
@<TRIPOS>BOND
     1     7     6    1
     2    25    22    1
     3     8     6    1
     4     6     9    1
     5     6     1    1
     6    22    24    1
     7    22    23    1
     8    22     5    1
     9     1     5    1
    10     1     2    1
    11     5     4    1
    12    11    10    1
    13     2    10    1
    14     2     3    1
    15    10    13    1
    16    10    12    1
    17     4     3    1
    18     4    18    1
    19    20    18    1
    20     3    14    1
    21    18    19    1
    22    18    21    1
    23    16    14    1
    24    14    17    1
    25    14    15    1
