@<TRIPOS>MOLECULE
1,2,3,4,5
 25 25 0 0 0
SMALL
GASTEIGER

@<TRIPOS>ATOM
      1 C           0.7303    2.3443    1.6046 C.2     1  UNL1       -0.0584
      2 C           1.3725    3.4843    1.0434 C.2     1  UNL1       -0.0477
      3 C           0.6499    4.6364    1.4420 C.2     1  UNL1       -0.0477
      4 C          -0.4863    4.2113    2.1953 C.2     1  UNL1       -0.0584
      5 C          -0.4311    2.7987    2.3229 C.3     1  UNL1        0.0231
      6 C           0.9391    0.9071    1.2269 C.3     1  UNL1       -0.0424
      7 H           0.1516    0.5928    0.5373 H       1  UNL1        0.0275
      8 H           0.8958    0.2583    2.1007 H       1  UNL1        0.0275
      9 H           1.8973    0.7533    0.7379 H       1  UNL1        0.0275
     10 C           2.4765    3.5122    0.0273 C.3     1  UNL1       -0.0395
     11 H           2.8529    2.5132   -0.1789 H       1  UNL1        0.0278
     12 H           3.3089    4.1363    0.3558 H       1  UNL1        0.0278
     13 H           2.0963    3.9269   -0.9093 H       1  UNL1        0.0278
     14 C           0.9022    6.0215    0.9270 C.3     1  UNL1       -0.0395
     15 H           0.4231    6.1524   -0.0474 H       1  UNL1        0.0278
     16 H           1.9697    6.2025    0.8088 H       1  UNL1        0.0278
     17 H           0.5039    6.7739    1.6048 H       1  UNL1        0.0278
     18 C          -1.6467    5.0680    2.6013 C.3     1  UNL1       -0.0424
     19 H          -1.3512    6.1086    2.7155 H       1  UNL1        0.0275
     20 H          -2.0721    4.7296    3.5448 H       1  UNL1        0.0275
     21 H          -2.4248    5.0147    1.8355 H       1  UNL1        0.0275
     22 C          -1.5475    1.9071    2.7846 C.3     1  UNL1       -0.0510
     23 H          -2.1906    1.6476    1.9390 H       1  UNL1        0.0242
     24 H          -2.1581    2.3998    3.5387 H       1  UNL1        0.0242
     25 H          -1.1581    0.9835    3.2102 H       1  UNL1        0.0242
@<TRIPOS>BOND
     1    13    10    1
     2    11    10    1
     3    15    14    1
     4    10    12    1
     5    10     2    1
     6     7     6    1
     7     9     6    1
     8    16    14    1
     9    14     3    1
    10    14    17    1
    11     2     3    1
    12     2     1    2
    13     6     1    1
    14     6     8    1
    15     3     4    2
    16     1     5    1
    17    21    18    1
    18    23    22    1
    19     4     5    1
    20     4    18    1
    21     5    22    1
    22    18    19    1
    23    18    20    1
    24    22    25    1
    25    22    24    1
