@<TRIPOS>MOLECULE
1,2,3,4,5
 25 25 0 0 0
SMALL
GASTEIGER

@<TRIPOS>ATOM
      1 C          -2.3102   -0.4778    2.5244 C.2     1  UNL1       -0.0584
      2 C          -0.9233   -0.1627    2.5687 C.3     1  UNL1        0.0231
      3 C          -0.7194    1.0457    1.8197 C.2     1  UNL1       -0.0584
      4 C          -1.9929    1.4304    1.2736 C.2     1  UNL1       -0.0477
      5 C          -2.9588    0.4711    1.6826 C.2     1  UNL1       -0.0477
      6 C          -2.8970   -1.7630    3.0264 C.3     1  UNL1       -0.0424
      7 H          -2.7043   -2.5646    2.3089 H       1  UNL1        0.0275
      8 H          -3.9745   -1.6835    3.1594 H       1  UNL1        0.0275
      9 H          -2.4483   -2.0500    3.9773 H       1  UNL1        0.0275
     10 C           0.1134   -1.1474    3.0208 C.3     1  UNL1       -0.0510
     11 H          -0.0237   -1.4340    4.0623 H       1  UNL1        0.0242
     12 H           1.1159   -0.7484    2.9039 H       1  UNL1        0.0242
     13 H           0.0359   -2.0495    2.4094 H       1  UNL1        0.0242
     14 C           0.5830    1.5775    1.2851 C.3     1  UNL1       -0.0424
     15 H           0.6865    1.3028    0.2326 H       1  UNL1        0.0275
     16 H           1.4297    1.1710    1.8279 H       1  UNL1        0.0275
     17 H           0.6247    2.6637    1.3564 H       1  UNL1        0.0275
     18 C          -2.1950    2.4799    0.2193 C.3     1  UNL1       -0.0395
     19 H          -2.0190    2.0527   -0.7707 H       1  UNL1        0.0278
     20 H          -1.5038    3.3098    0.3566 H       1  UNL1        0.0278
     21 H          -3.2108    2.8717    0.2406 H       1  UNL1        0.0278
     22 C          -4.3068    0.3047    1.0513 C.3     1  UNL1       -0.0395
     23 H          -4.7748    1.2628    0.8353 H       1  UNL1        0.0278
     24 H          -4.9844   -0.2755    1.6727 H       1  UNL1        0.0278
     25 H          -4.1817   -0.2263    0.1038 H       1  UNL1        0.0278
@<TRIPOS>BOND
     1    19    18    1
     2    25    22    1
     3    18    21    1
     4    18    20    1
     5    18     4    1
     6    15    14    1
     7    23    22    1
     8    22    24    1
     9    22     5    1
    10     4     5    1
    11     4     3    2
    12    14    17    1
    13    14     3    1
    14    14    16    1
    15     5     1    2
    16     3     2    1
    17     7     6    1
    18    13    10    1
    19     1     2    1
    20     1     6    1
    21     2    10    1
    22    12    10    1
    23    10    11    1
    24     6     8    1
    25     6     9    1
