@<TRIPOS>MOLECULE
1,2,3,4,5
 25 25 0 0 0
SMALL
GASTEIGER

@<TRIPOS>ATOM
      1 C           4.7937   -0.5965    9.2502 C.3     1  UNL1        0.0052
      2 C           3.9958   -1.2762   10.2102 C.2     1  UNL1       -0.0658
      3 C           3.0661   -0.3465   10.7356 C.2     1  UNL1       -0.0658
      4 C           3.3042    0.9169   10.1250 C.3     1  UNL1        0.0052
      5 C           4.3667    0.7651    9.1989 C.3     1  UNL1       -0.0053
      6 C           5.5555   -1.2980    8.1660 C.3     1  UNL1       -0.0545
      7 C           3.8782   -2.7699   10.3190 C.3     1  UNL1       -0.0430
      8 C           1.8626   -0.6693   11.5706 C.3     1  UNL1       -0.0430
      9 C           2.4003    2.1046   10.2866 C.3     1  UNL1       -0.0545
     10 C           4.7617    1.7506    8.1359 C.3     1  UNL1       -0.0574
     11 H           6.2588   -0.6317    7.6758 H       1  UNL1        0.0239
     12 H           6.0862   -2.1692    8.5456 H       1  UNL1        0.0239
     13 H           4.8478   -1.6492    7.4079 H       1  UNL1        0.0239
     14 H           3.5646   -3.0831   11.3119 H       1  UNL1        0.0275
     15 H           4.8194   -3.2624   10.0910 H       1  UNL1        0.0275
     16 H           3.1313   -3.1226    9.6015 H       1  UNL1        0.0275
     17 H           1.7840   -0.0047   12.4308 H       1  UNL1        0.0275
     18 H           1.8967   -1.6966   11.9251 H       1  UNL1        0.0275
     19 H           0.9611   -0.5438   10.9658 H       1  UNL1        0.0275
     20 H           2.8710    3.0208    9.9346 H       1  UNL1        0.0239
     21 H           2.1181    2.2340   11.3314 H       1  UNL1        0.0239
     22 H           1.4840    1.9503    9.7096 H       1  UNL1        0.0239
     23 H           4.3838    2.7456    8.3651 H       1  UNL1        0.0236
     24 H           5.8432    1.8094    8.0267 H       1  UNL1        0.0236
     25 H           4.3396    1.4447    7.1744 H       1  UNL1        0.0236
@<TRIPOS>BOND
     1    25    10    1
     2    13     6    1
     3    11     6    1
     4    24    10    1
     5    10    23    1
     6    10     5    1
     7     6    12    1
     8     6     1    1
     9     5     1    1
    10     5     4    1
    11     1     2    1
    12    16     7    1
    13    22     9    1
    14    20     9    1
    15    15     7    1
    16     4     9    1
    17     4     3    1
    18     2     7    1
    19     2     3    2
    20     9    21    1
    21     7    14    1
    22     3     8    1
    23    19     8    1
    24     8    18    1
    25     8    17    1
