@<TRIPOS>MOLECULE
1,3,5,7,9
 10 10 0 0 0
SMALL
GASTEIGER

@<TRIPOS>ATOM
      1 C           5.8753    5.1849   15.2772 C.2     1  UNL1       -0.0763
      2 H           5.9630    4.8417   14.2541 H       1  UNL1        0.0578
      3 C           4.8511    4.8220   16.1810 C.3     1  UNL1        0.0054
      4 H           4.0126    4.1764   15.9547 H       1  UNL1        0.0394
      5 C           5.0024    5.6073   17.3472 C.2     1  UNL1       -0.0763
      6 H           4.2938    5.6649   18.1663 H       1  UNL1        0.0578
      7 C           6.1082    6.4600   17.1571 C.2     1  UNL1       -0.0654
      8 H           6.4107    7.2636   17.8170 H       1  UNL1        0.0615
      9 C           6.6540    6.1935   15.8881 C.2     1  UNL1       -0.0654
     10 H           7.4431    6.7647   15.4112 H       1  UNL1        0.0615
@<TRIPOS>BOND
     1     2     1    1
     2     1     9    2
     3     1     3    1
     4    10     9    1
     5     9     7    1
     6     4     3    1
     7     3     5    1
     8     7     5    2
     9     7     8    1
    10     5     6    1
