@<TRIPOS>MOLECULE
1,3,5,7,9
 10 10 0 0 0
SMALL
GASTEIGER

@<TRIPOS>ATOM
      1 C           6.9524    3.4061   19.6432 C.2     1  UNL1       -0.0763
      2 H           6.1763    2.8496   20.1554 H       1  UNL1        0.0578
      3 C           7.0574    4.8126   19.5703 C.3     1  UNL1        0.0054
      4 H           6.3641    5.5191   20.0115 H       1  UNL1        0.0394
      5 C           8.3091    5.1301   19.0002 C.2     1  UNL1       -0.0763
      6 H           8.7379    6.1225   18.9133 H       1  UNL1        0.0578
      7 C           8.9903    3.9195   18.7477 C.2     1  UNL1       -0.0654
      8 H          10.0241    3.8350   18.4340 H       1  UNL1        0.0615
      9 C           8.1544    2.8566   19.1431 C.2     1  UNL1       -0.0654
     10 H           8.4266    1.8105   19.1882 H       1  UNL1        0.0615
@<TRIPOS>BOND
     1     8     7    1
     2     7     5    2
     3     7     9    1
     4     6     5    1
     5     5     3    1
     6     9    10    1
     7     9     1    2
     8     3     1    1
     9     3     4    1
    10     1     2    1
