@<TRIPOS>MOLECULE
1,3,5,7,9
 10 10 0 0 0
SMALL
GASTEIGER

@<TRIPOS>ATOM
      1 C          -2.8473   -1.3458   11.2630 C.2     1  UNL1       -0.0654
      2 H          -2.2964   -0.7128   10.5801 H       1  UNL1        0.0615
      3 C          -3.2465   -2.6748   11.0147 C.2     1  UNL1       -0.0654
      4 H          -3.0721   -3.2216   10.0971 H       1  UNL1        0.0615
      5 C          -4.0872   -3.0829   12.0659 C.2     1  UNL1       -0.0763
      6 H          -4.6566   -4.0042   12.0917 H       1  UNL1        0.0578
      7 C          -4.2027   -2.0125   12.9780 C.3     1  UNL1        0.0054
      8 H          -4.8892   -1.9741   13.8180 H       1  UNL1        0.0394
      9 C          -3.4363   -0.9316   12.4770 C.2     1  UNL1       -0.0763
     10 H          -3.4351    0.0841   12.8547 H       1  UNL1        0.0578
@<TRIPOS>BOND
     1     4     3    1
     2     2     1    1
     3     3     1    1
     4     3     5    2
     5     1     9    2
     6     5     6    1
     7     5     7    1
     8     9    10    1
     9     9     7    1
    10     7     8    1
