@<TRIPOS>MOLECULE
1,3,5,7,9
 10 10 0 0 0
SMALL
GASTEIGER

@<TRIPOS>ATOM
      1 C          -0.8845   -3.9176   15.1989 C.3     1  UNL1       -0.0127
      2 H          -0.1112   -3.5267   15.8470 H       1  UNL1        0.0352
      3 C          -0.6819   -4.7326   14.0636 C.3     1  UNL1       -0.0235
      4 H           0.2787   -5.0872   13.7092 H       1  UNL1        0.0315
      5 C          -1.9508   -5.1633   13.6056 C.3     1  UNL1       -0.0127
      6 H          -2.1299   -5.9180   12.8473 H       1  UNL1        0.0352
      7 C          -2.9270   -4.6168   14.4645 C.2     1  UNL1       -0.0837
      8 H          -3.9813   -4.8647   14.4642 H       1  UNL1        0.0572
      9 C          -2.2730   -3.8356   15.4352 C.2     1  UNL1       -0.0837
     10 H          -2.7372   -3.3698   16.2960 H       1  UNL1        0.0572
@<TRIPOS>BOND
     1     6     5    1
     2     5     3    1
     3     5     7    1
     4     4     3    1
     5     3     1    1
     6     8     7    1
     7     7     9    2
     8     1     9    1
     9     1     2    1
    10     9    10    1
