@<TRIPOS>MOLECULE
1,3,5,7,9
 10 10 0 0 0
SMALL
GASTEIGER

@<TRIPOS>ATOM
      1 C           3.4442    9.5020   13.8105 C.2     1  UNL1       -0.0763
      2 H           3.8888    8.5196   13.8991 H       1  UNL1        0.0578
      3 C           2.1932    9.9064   14.3250 C.3     1  UNL1        0.0054
      4 H           1.4944    9.2856   14.8746 H       1  UNL1        0.0394
      5 C           1.9257   11.2117   13.8514 C.2     1  UNL1       -0.0763
      6 H           0.9931   11.7498   13.9824 H       1  UNL1        0.0578
      7 C           3.0022   11.5995   13.0289 C.2     1  UNL1       -0.0654
      8 H           3.0354   12.4701   12.3877 H       1  UNL1        0.0615
      9 C           3.9553   10.5602   13.0267 C.2     1  UNL1       -0.0654
     10 H           4.8361   10.5148   12.4009 H       1  UNL1        0.0615
@<TRIPOS>BOND
     1     8     7    1
     2    10     9    1
     3     9     7    1
     4     9     1    2
     5     7     5    2
     6     1     2    1
     7     1     3    1
     8     5     6    1
     9     5     3    1
    10     3     4    1
