@<TRIPOS>MOLECULE
1,3,5,7,9
 10 10 0 0 0
SMALL
GASTEIGER

@<TRIPOS>ATOM
      1 C           5.4099   13.2750   16.0154 C.3     1  UNL1        0.0054
      2 H           6.4416   13.1483   16.3233 H       1  UNL1        0.0394
      3 C           4.3067   13.4245   16.8851 C.2     1  UNL1       -0.0763
      4 H           4.3374   13.4146   17.9669 H       1  UNL1        0.0578
      5 C           3.1785   13.7663   16.1101 C.2     1  UNL1       -0.0654
      6 H           2.2047   14.0342   16.5021 H       1  UNL1        0.0615
      7 C           3.5838   13.8541   14.7683 C.2     1  UNL1       -0.0654
      8 H           2.9809   14.2477   13.9609 H       1  UNL1        0.0615
      9 C           4.9564   13.5241   14.6959 C.2     1  UNL1       -0.0763
     10 H           5.5832   13.6097   13.8157 H       1  UNL1        0.0578
@<TRIPOS>BOND
     1    10     9    1
     2     8     7    1
     3     9     7    2
     4     9     1    1
     5     7     5    1
     6     1     2    1
     7     1     3    1
     8     5     6    1
     9     5     3    2
    10     3     4    1
