@<TRIPOS>MOLECULE
1,3,5,7,9
 10 10 0 0 0
SMALL
GASTEIGER

@<TRIPOS>ATOM
      1 C           7.8703   13.2046    9.9996 C.2     1  UNL1       -0.0763
      2 H           8.3934   13.9647   10.5697 H       1  UNL1        0.0578
      3 C           8.2546   12.7149    8.7363 C.2     1  UNL1       -0.0654
      4 H           9.1206   13.0320    8.1688 H       1  UNL1        0.0615
      5 C           7.4272   11.6210    8.4146 C.2     1  UNL1       -0.0654
      6 H           7.5598   10.9668    7.5606 H       1  UNL1        0.0615
      7 C           6.5446   11.4093    9.4958 C.2     1  UNL1       -0.0763
      8 H           5.8647   10.5754    9.6171 H       1  UNL1        0.0578
      9 C           6.8114   12.3935   10.4749 C.3     1  UNL1        0.0054
     10 H           6.4120   12.3933   11.4825 H       1  UNL1        0.0394
@<TRIPOS>BOND
     1     6     5    1
     2     4     3    1
     3     5     3    1
     4     5     7    2
     5     3     1    2
     6     7     8    1
     7     7     9    1
     8     1     9    1
     9     1     2    1
    10     9    10    1
