@<TRIPOS>MOLECULE
1,3,5,7,9
 10 10 0 0 0
SMALL
GASTEIGER

@<TRIPOS>ATOM
      1 C           6.3834   16.1003    8.3279 C.2     1  UNL1       -0.0837
      2 H           6.4401   16.7929    9.1597 H       1  UNL1        0.0572
      3 C           7.4700   15.4373    7.7286 C.2     1  UNL1       -0.0837
      4 H           8.5075   15.5469    8.0184 H       1  UNL1        0.0572
      5 C           6.9965   14.7533    6.5870 C.3     1  UNL1       -0.0127
      6 H           7.6108   14.2479    5.8482 H       1  UNL1        0.0352
      7 C           5.6158   15.0290    6.4614 C.3     1  UNL1       -0.0235
      8 H           4.9966   14.7720    5.6113 H       1  UNL1        0.0315
      9 C           5.2347   15.8568    7.5385 C.3     1  UNL1       -0.0127
     10 H           4.2688   16.3284    7.6678 H       1  UNL1        0.0352
@<TRIPOS>BOND
     1     8     7    1
     2     6     5    1
     3     7     5    1
     4     7     9    1
     5     5     3    1
     6     9    10    1
     7     9     1    1
     8     3     4    1
     9     3     1    2
    10     1     2    1
