@<TRIPOS>MOLECULE
1,3,5,7,9
 10 10 0 0 0
SMALL
GASTEIGER

@<TRIPOS>ATOM
      1 C           2.8447    6.1900    3.6396 C.2     1  UNL1       -0.0763
      2 H           3.1996    6.9622    2.9729 H       1  UNL1        0.0578
      3 C           3.3605    5.9103    4.9180 C.3     1  UNL1        0.0054
      4 H           4.1953    6.4135    5.3784 H       1  UNL1        0.0394
      5 C           2.4952    4.9711    5.5473 C.2     1  UNL1       -0.0763
      6 H           2.5236    4.6797    6.5864 H       1  UNL1        0.0578
      7 C           1.4068    4.7325    4.6671 C.2     1  UNL1       -0.0654
      8 H           0.5202    4.1649    4.9053 H       1  UNL1        0.0615
      9 C           1.6278    5.4619    3.4849 C.2     1  UNL1       -0.0654
     10 H           0.9346    5.5658    2.6651 H       1  UNL1        0.0615
@<TRIPOS>BOND
     1    10     9    1
     2     2     1    1
     3     9     1    2
     4     9     7    1
     5     1     3    1
     6     7     8    1
     7     7     5    2
     8     3     4    1
     9     3     5    1
    10     5     6    1
