@<TRIPOS>MOLECULE
1,2,3,4,5
 25 25 0 0 0
SMALL
GASTEIGER

@<TRIPOS>ATOM
      1 C          10.4163   12.1424   -0.1203 C.2     1  UNL1       -0.0584
      2 C           9.6938   11.1986   -0.9071 C.2     1  UNL1       -0.0477
      3 C           8.6506   11.9019   -1.5836 C.2     1  UNL1       -0.0477
      4 C           8.7450   13.2858   -1.2383 C.2     1  UNL1       -0.0584
      5 C           9.8314   13.4353   -0.3273 C.3     1  UNL1        0.0231
      6 C          11.7219   11.9021    0.5801 C.3     1  UNL1       -0.0424
      7 H          11.8636   10.8457    0.8022 H       1  UNL1        0.0275
      8 H          11.7690   12.4568    1.5176 H       1  UNL1        0.0275
      9 H          12.5482   12.2324   -0.0537 H       1  UNL1        0.0275
     10 C          10.0972    9.7779   -1.1798 C.3     1  UNL1       -0.0395
     11 H          10.7331    9.7398   -2.0677 H       1  UNL1        0.0278
     12 H           9.2293    9.1459   -1.3627 H       1  UNL1        0.0278
     13 H          10.6549    9.3536   -0.3467 H       1  UNL1        0.0278
     14 C           7.7717   11.3290   -2.6572 C.3     1  UNL1       -0.0395
     15 H           8.2707   11.4044   -3.6264 H       1  UNL1        0.0278
     16 H           6.8261   11.8653   -2.7236 H       1  UNL1        0.0278
     17 H           7.5533   10.2781   -2.4713 H       1  UNL1        0.0278
     18 C           7.9740   14.3989   -1.8837 C.3     1  UNL1       -0.0424
     19 H           8.4807   14.7277   -2.7943 H       1  UNL1        0.0275
     20 H           7.8871   15.2549   -1.2165 H       1  UNL1        0.0275
     21 H           6.9686   14.0784   -2.1537 H       1  UNL1        0.0275
     22 C          10.4253   14.7272    0.1496 C.3     1  UNL1       -0.0510
     23 H          11.2536   15.0218   -0.4994 H       1  UNL1        0.0242
     24 H          10.8052   14.6276    1.1662 H       1  UNL1        0.0242
     25 H           9.6860   15.5259    0.1409 H       1  UNL1        0.0242
@<TRIPOS>BOND
     1    15    14    1
     2    19    18    1
     3    16    14    1
     4    14    17    1
     5    14     3    1
     6    21    18    1
     7    11    10    1
     8    18     4    1
     9    18    20    1
    10     3     4    2
    11     3     2    1
    12    12    10    1
    13     4     5    1
    14    10     2    1
    15    10    13    1
    16     2     1    2
    17    23    22    1
    18     5     1    1
    19     5    22    1
    20     1     6    1
    21     9     6    1
    22    25    22    1
    23    22    24    1
    24     6     7    1
    25     6     8    1
