@<TRIPOS>MOLECULE
1,2,3,4,5
 25 25 0 0 0
SMALL
GASTEIGER

@<TRIPOS>ATOM
      1 C           1.9084    1.4364    6.0437 C.2     1  UNL1       -0.0477
      2 C           2.5673    0.9639    7.2168 C.2     1  UNL1       -0.0477
      3 C           3.6439    1.8531    7.5142 C.2     1  UNL1       -0.0584
      4 C           3.6454    2.8843    6.5271 C.3     1  UNL1        0.0231
      5 C           2.5748    2.6210    5.6100 C.2     1  UNL1       -0.0584
      6 C           0.8685    0.6553    5.2920 C.3     1  UNL1       -0.0395
      7 H           1.2658   -0.3258    5.0229 H       1  UNL1        0.0278
      8 H           0.5834    1.1685    4.3770 H       1  UNL1        0.0278
      9 H          -0.0310    0.5047    5.8917 H       1  UNL1        0.0278
     10 C           2.3240   -0.3872    7.8223 C.3     1  UNL1       -0.0395
     11 H           1.2585   -0.5818    7.9409 H       1  UNL1        0.0278
     12 H           2.7959   -0.4781    8.7979 H       1  UNL1        0.0278
     13 H           2.7381   -1.1602    7.1692 H       1  UNL1        0.0278
     14 C           4.7399    1.6152    8.5112 C.3     1  UNL1       -0.0424
     15 H           4.4047    0.9783    9.3273 H       1  UNL1        0.0275
     16 H           5.0963    2.5512    8.9397 H       1  UNL1        0.0275
     17 H           5.5855    1.1262    8.0212 H       1  UNL1        0.0275
     18 C           4.7305    3.9037    6.3290 C.3     1  UNL1       -0.0510
     19 H           5.5237    3.4916    5.7003 H       1  UNL1        0.0242
     20 H           5.1720    4.1966    7.2806 H       1  UNL1        0.0242
     21 H           4.3458    4.7998    5.8435 H       1  UNL1        0.0242
     22 C           2.3573    3.3420    4.3111 C.3     1  UNL1       -0.0424
     23 H           3.0182    2.9321    3.5436 H       1  UNL1        0.0275
     24 H           2.5759    4.4044    4.4112 H       1  UNL1        0.0275
     25 H           1.3299    3.2406    3.9667 H       1  UNL1        0.0275
@<TRIPOS>BOND
     1    23    22    1
     2    25    22    1
     3    22    24    1
     4    22     5    1
     5     8     6    1
     6     7     6    1
     7     6     9    1
     8     6     1    1
     9     5     1    2
    10     5     4    1
    11    19    18    1
    12    21    18    1
    13     1     2    1
    14    18     4    1
    15    18    20    1
    16     4     3    1
    17    13    10    1
    18     2     3    2
    19     2    10    1
    20     3    14    1
    21    10    11    1
    22    10    12    1
    23    17    14    1
    24    14    16    1
    25    14    15    1
