@<TRIPOS>MOLECULE
1,2,3,4,5
 25 25 0 0 0
SMALL
GASTEIGER

@<TRIPOS>ATOM
      1 C           1.2081    1.7540    5.9920 C.2     1  UNL1       -0.0477
      2 C           0.7866    0.5540    5.3181 C.2     1  UNL1       -0.0477
      3 C           1.6796    0.3237    4.2440 C.2     1  UNL1       -0.0584
      4 C           2.6477    1.3754    4.2455 C.3     1  UNL1        0.0231
      5 C           2.3931    2.2174    5.3671 C.2     1  UNL1       -0.0584
      6 C           0.6798    2.1984    7.3210 C.3     1  UNL1       -0.0395
      7 C          -0.2155   -0.4167    5.8578 C.3     1  UNL1       -0.0395
      8 C           1.7510   -0.8850    3.3647 C.3     1  UNL1       -0.0424
      9 C           3.8779    1.3793    3.3952 C.3     1  UNL1       -0.0510
     10 C           3.3476    3.2329    5.9090 C.3     1  UNL1       -0.0424
     11 H           1.1767    1.6483    8.1232 H       1  UNL1        0.0278
     12 H           0.8546    3.2592    7.4815 H       1  UNL1        0.0278
     13 H          -0.3888    2.0149    7.3984 H       1  UNL1        0.0278
     14 H          -1.0558    0.0922    6.3230 H       1  UNL1        0.0278
     15 H          -0.5945   -1.0698    5.0750 H       1  UNL1        0.0278
     16 H           0.2580   -1.0450    6.6154 H       1  UNL1        0.0278
     17 H           0.8181   -1.4430    3.3767 H       1  UNL1        0.0275
     18 H           1.9687   -0.6023    2.3373 H       1  UNL1        0.0275
     19 H           2.5480   -1.5479    3.7072 H       1  UNL1        0.0275
     20 H           4.5282    0.5480    3.6753 H       1  UNL1        0.0242
     21 H           3.6228    1.2652    2.3438 H       1  UNL1        0.0242
     22 H           4.4334    2.3041    3.5154 H       1  UNL1        0.0242
     23 H           4.2720    2.7338    6.2063 H       1  UNL1        0.0275
     24 H           3.5949    3.9925    5.1733 H       1  UNL1        0.0275
     25 H           2.9374    3.7271    6.7850 H       1  UNL1        0.0275
@<TRIPOS>BOND
     1    18     8    1
     2    21     9    1
     3     8    17    1
     4     8    19    1
     5     8     3    1
     6     9    22    1
     7     9    20    1
     8     9     4    1
     9     3     4    1
    10     3     2    2
    11     4     5    1
    12    15     7    1
    13    24    10    1
    14     2     7    1
    15     2     1    1
    16     5    10    1
    17     5     1    2
    18     7    14    1
    19     7    16    1
    20    10    23    1
    21    10    25    1
    22     1     6    1
    23     6    13    1
    24     6    12    1
    25     6    11    1
