@<TRIPOS>MOLECULE
1,2,3,4,5
 28 28 0 0 0
SMALL
GASTEIGER

@<TRIPOS>ATOM
      1 C           7.5046    7.8323    7.8307 C.2     1  UNL1       -0.0582
      2 C           8.8965    7.9008    7.5229 C.2     1  UNL1       -0.0477
      3 C           9.6216    7.6557    8.7307 C.2     1  UNL1       -0.0477
      4 C           8.6817    7.4306    9.7792 C.2     1  UNL1       -0.0582
      5 C           7.3733    7.5461    9.2278 C.3     1  UNL1        0.0259
      6 C           6.3896    7.8327    6.8243 C.3     1  UNL1       -0.0424
      7 H           6.2451    6.8265    6.4224 H       1  UNL1        0.0275
      8 H           6.6090    8.4984    5.9900 H       1  UNL1        0.0275
      9 H           5.4508    8.1530    7.2745 H       1  UNL1        0.0275
     10 C           9.4966    7.9172    6.1451 C.3     1  UNL1       -0.0395
     11 H           9.6431    6.8933    5.7912 H       1  UNL1        0.0278
     12 H          10.4658    8.4148    6.1419 H       1  UNL1        0.0278
     13 H           8.8499    8.4296    5.4352 H       1  UNL1        0.0278
     14 C          11.0962    7.3848    8.8152 C.3     1  UNL1       -0.0395
     15 H          11.2880    6.3304    8.5993 H       1  UNL1        0.0278
     16 H          11.4807    7.6018    9.8102 H       1  UNL1        0.0278
     17 H          11.6523    7.9847    8.0963 H       1  UNL1        0.0278
     18 C           9.0276    6.9539   11.1591 C.3     1  UNL1       -0.0424
     19 H           8.2088    7.1321   11.8537 H       1  UNL1        0.0275
     20 H           9.9113    7.4639   11.5415 H       1  UNL1        0.0275
     21 H           9.2363    5.8808   11.1455 H       1  UNL1        0.0275
     22 C           6.0938    7.1985    9.9341 C.3     1  UNL1       -0.0417
     23 H           5.2560    7.7503    9.4981 H       1  UNL1        0.0274
     24 H           6.1550    7.4827   10.9886 H       1  UNL1        0.0274
     25 C           5.8128    5.6967    9.8332 C.3     1  UNL1       -0.0642
     26 H           5.7232    5.3957    8.7914 H       1  UNL1        0.0230
     27 H           4.8862    5.4479   10.3456 H       1  UNL1        0.0230
     28 H           6.6219    5.1276   10.2860 H       1  UNL1        0.0230
@<TRIPOS>BOND
     1    13    10    1
     2    11    10    1
     3     8     6    1
     4    12    10    1
     5    10     2    1
     6     7     6    1
     7     6     9    1
     8     6     1    1
     9     2     1    2
    10     2     3    1
    11     1     5    1
    12    17    14    1
    13    15    14    1
    14     3    14    1
    15     3     4    2
    16    26    25    1
    17    14    16    1
    18     5     4    1
    19     5    22    1
    20    23    22    1
    21     4    18    1
    22    25    22    1
    23    25    28    1
    24    25    27    1
    25    22    24    1
    26    21    18    1
    27    18    20    1
    28    18    19    1
