@<TRIPOS>MOLECULE
1,2,3,4,5
 25 25 0 0 0
SMALL
GASTEIGER

@<TRIPOS>ATOM
      1 C           2.8923   -5.2757   -0.1263 C.3     1  UNL1        0.0231
      2 C           3.5888   -4.2019    0.5188 C.2     1  UNL1       -0.0584
      3 C           2.6387   -3.4356    1.2463 C.2     1  UNL1       -0.0477
      4 C           1.3488   -3.9846    0.9971 C.2     1  UNL1       -0.0477
      5 C           1.5110   -5.1430    0.1780 C.2     1  UNL1       -0.0584
      6 C           3.5389   -6.4395   -0.8115 C.3     1  UNL1       -0.0510
      7 C           5.0799   -4.1061    0.6246 C.3     1  UNL1       -0.0424
      8 C           2.9179   -2.3934    2.2785 C.3     1  UNL1       -0.0395
      9 C           0.1137   -3.6082    1.7541 C.3     1  UNL1       -0.0395
     10 C           0.4420   -6.1446   -0.1325 C.3     1  UNL1       -0.0424
     11 H           3.7844   -7.2171   -0.0851 H       1  UNL1        0.0242
     12 H           2.8770   -6.8693   -1.5599 H       1  UNL1        0.0242
     13 H           4.4577   -6.1361   -1.3070 H       1  UNL1        0.0242
     14 H           5.4474   -4.8070    1.3772 H       1  UNL1        0.0275
     15 H           5.5541   -4.3498   -0.3235 H       1  UNL1        0.0275
     16 H           5.3938   -3.1061    0.9109 H       1  UNL1        0.0275
     17 H           2.8270   -2.8373    3.2726 H       1  UNL1        0.0278
     18 H           3.9247   -1.9959    2.1825 H       1  UNL1        0.0278
     19 H           2.2067   -1.5733    2.2130 H       1  UNL1        0.0278
     20 H           0.0291   -2.5285    1.8538 H       1  UNL1        0.0278
     21 H          -0.7823   -3.9798    1.2631 H       1  UNL1        0.0278
     22 H           0.1514   -4.0382    2.7576 H       1  UNL1        0.0278
     23 H          -0.5242   -5.6597   -0.2544 H       1  UNL1        0.0275
     24 H           0.6727   -6.6889   -1.0453 H       1  UNL1        0.0275
     25 H           0.3601   -6.8671    0.6821 H       1  UNL1        0.0275
@<TRIPOS>BOND
     1    12     6    1
     2    13     6    1
     3    24    10    1
     4     6     1    1
     5     6    11    1
     6    15     7    1
     7    23    10    1
     8    10     5    1
     9    10    25    1
    10     1     5    1
    11     1     2    1
    12     5     4    2
    13     2     7    1
    14     2     3    2
    15     7    16    1
    16     7    14    1
    17     4     3    1
    18     4     9    1
    19     3     8    1
    20    21     9    1
    21     9    20    1
    22     9    22    1
    23    18     8    1
    24    19     8    1
    25     8    17    1
