@<TRIPOS>MOLECULE
1,2,3,4,5
 10 10 0 0 0
SMALL
GASTEIGER

@<TRIPOS>ATOM
      1 C           5.3946    1.4751    0.6254 C.2     1  UNL1       -0.0654
      2 C           6.0773    2.6496    0.9873 C.2     1  UNL1       -0.0763
      3 C           6.6186    2.4632    2.2801 C.3     1  UNL1        0.0054
      4 C           6.2474    1.1829    2.7227 C.2     1  UNL1       -0.0763
      5 C           5.4769    0.5776    1.7043 C.2     1  UNL1       -0.0654
      6 H           4.9270    1.2803   -0.3289 H       1  UNL1        0.0615
      7 H           6.2784    3.4900    0.3367 H       1  UNL1        0.0578
      8 H           7.3325    3.1203    2.7580 H       1  UNL1        0.0394
      9 H           6.6230    0.6792    3.6030 H       1  UNL1        0.0578
     10 H           5.1390   -0.4497    1.6996 H       1  UNL1        0.0615
@<TRIPOS>BOND
     1     6     1    1
     2     7     2    1
     3     1     2    2
     4     1     5    1
     5     2     3    1
     6    10     5    1
     7     5     4    2
     8     3     4    1
     9     3     8    1
    10     4     9    1
