@<TRIPOS>MOLECULE
1,3,5,7,9
 10 10 0 0 0
SMALL
GASTEIGER

@<TRIPOS>ATOM
      1 C          11.5540    7.7771   12.5511 C.3     1  UNL1       -0.0127
      2 H          10.6908    7.7711   13.2066 H       1  UNL1        0.0352
      3 C          12.2810    6.6433   12.1280 C.2     1  UNL1       -0.0837
      4 H          12.0510    5.6114   12.3671 H       1  UNL1        0.0572
      5 C          13.4411    7.0954   11.4592 C.2     1  UNL1       -0.0837
      6 H          14.2558    6.4675   11.1176 H       1  UNL1        0.0572
      7 C          13.4288    8.5046   11.4688 C.3     1  UNL1       -0.0127
      8 H          14.2428    9.1443   11.1455 H       1  UNL1        0.0352
      9 C          12.2561    8.9282   12.1336 C.3     1  UNL1       -0.0235
     10 H          12.0105    9.9481   12.4106 H       1  UNL1        0.0315
@<TRIPOS>BOND
     1     6     5    1
     2     8     7    1
     3     5     7    1
     4     5     3    2
     5     7     9    1
     6     3     4    1
     7     3     1    1
     8     9    10    1
     9     9     1    1
    10     1     2    1
