@<TRIPOS>MOLECULE
1,3,5,7,9
 10 10 0 0 0
SMALL
GASTEIGER

@<TRIPOS>ATOM
      1 C           2.8327    2.7471    2.5037 C.3     1  UNL1       -0.0235
      2 H           2.4733    2.6125    1.4906 H       1  UNL1        0.0315
      3 C           3.3715    3.9385    3.0364 C.3     1  UNL1       -0.0127
      4 H           3.4769    4.8802    2.5104 H       1  UNL1        0.0352
      5 C           3.8746    3.6517    4.3259 C.2     1  UNL1       -0.0837
      6 H           4.4481    4.3322    4.9448 H       1  UNL1        0.0572
      7 C           3.6604    2.2832    4.5825 C.2     1  UNL1       -0.0837
      8 H           4.0549    1.7271    5.4252 H       1  UNL1        0.0572
      9 C           3.0069    1.7233    3.4644 C.3     1  UNL1       -0.0127
     10 H           2.8402    0.6651    3.2996 H       1  UNL1        0.0352
@<TRIPOS>BOND
     1     2     1    1
     2     1     3    1
     3     1     9    1
     4     4     3    1
     5     3     5    1
     6    10     9    1
     7     9     7    1
     8     5     7    2
     9     5     6    1
    10     7     8    1
