@<TRIPOS>MOLECULE
1,3,5,7,9
 10 10 0 0 0
SMALL
GASTEIGER

@<TRIPOS>ATOM
      1 C          -0.4219    2.0969    5.6699 C.2     1  UNL1       -0.0763
      2 H          -1.2057    1.5081    5.2091 H       1  UNL1        0.0578
      3 C          -0.5527    3.4347    6.0982 C.2     1  UNL1       -0.0654
      4 H          -1.4360    4.0514    5.9876 H       1  UNL1        0.0615
      5 C           0.6095    3.7785    6.8204 C.2     1  UNL1       -0.0654
      6 H           0.7583    4.6983    7.3725 H       1  UNL1        0.0615
      7 C           1.4645    2.6576    6.8329 C.2     1  UNL1       -0.0763
      8 H           2.3745    2.5679    7.4164 H       1  UNL1        0.0578
      9 C           0.8278    1.6142    6.1218 C.3     1  UNL1        0.0054
     10 H           1.1655    0.5837    6.0724 H       1  UNL1        0.0394
@<TRIPOS>BOND
     1     2     1    1
     2     1     3    2
     3     1     9    1
     4     4     3    1
     5    10     9    1
     6     3     5    1
     7     9     7    1
     8     5     7    2
     9     5     6    1
    10     7     8    1
