@<TRIPOS>MOLECULE
1,3,5,7,9
 10 10 0 0 0
SMALL
GASTEIGER

@<TRIPOS>ATOM
      1 C          10.4646    8.8813    8.0076 C.2     1  UNL1       -0.0837
      2 H           9.5267    8.5856    7.5552 H       1  UNL1        0.0572
      3 C          11.7454    8.4346    7.6144 C.2     1  UNL1       -0.0837
      4 H          11.9502    7.7303    6.8167 H       1  UNL1        0.0572
      5 C          12.7066    9.1832    8.3285 C.3     1  UNL1       -0.0127
      6 H          13.7792    9.1522    8.1669 H       1  UNL1        0.0352
      7 C          12.0190   10.1018    9.1513 C.3     1  UNL1       -0.0235
      8 H          12.4723   10.9061    9.7198 H       1  UNL1        0.0315
      9 C          10.6345    9.9092    8.9631 C.3     1  UNL1       -0.0127
     10 H           9.8451   10.5384    9.3599 H       1  UNL1        0.0352
@<TRIPOS>BOND
     1     4     3    1
     2     2     1    1
     3     3     1    2
     4     3     5    1
     5     1     9    1
     6     6     5    1
     7     5     7    1
     8     9     7    1
     9     9    10    1
    10     7     8    1
