@<TRIPOS>MOLECULE
1,2,3,4,5
 25 25 0 0 0
SMALL
GASTEIGER

@<TRIPOS>ATOM
      1 C           3.3867    9.4523   10.3333 C.2     1  UNL1       -0.0477
      2 C           3.4087    9.1934    8.9219 C.2     1  UNL1       -0.0477
      3 C           3.2113    7.8053    8.7244 C.2     1  UNL1       -0.0584
      4 C           3.0783    7.1958   10.0139 C.3     1  UNL1        0.0231
      5 C           3.1312    8.2222   11.0001 C.2     1  UNL1       -0.0584
      6 C           3.3078   10.8053   10.9665 C.3     1  UNL1       -0.0395
      7 C           3.4428   10.2209    7.8358 C.3     1  UNL1       -0.0395
      8 C           3.0042    7.1116    7.4152 C.3     1  UNL1       -0.0424
      9 C           2.7082    5.7711   10.2729 C.3     1  UNL1       -0.0510
     10 C           2.7368    8.0369   12.4278 C.3     1  UNL1       -0.0424
     11 H           3.7751   10.8032   11.9478 H       1  UNL1        0.0278
     12 H           3.8057   11.5571   10.3599 H       1  UNL1        0.0278
     13 H           2.2638   11.1020   11.0875 H       1  UNL1        0.0278
     14 H           3.7990   11.1752    8.2141 H       1  UNL1        0.0278
     15 H           4.0945    9.9103    7.0200 H       1  UNL1        0.0278
     16 H           2.4391   10.3671    7.4321 H       1  UNL1        0.0278
     17 H           1.9404    6.9248    7.2569 H       1  UNL1        0.0275
     18 H           3.3696    7.7185    6.5906 H       1  UNL1        0.0275
     19 H           3.5181    6.1526    7.3950 H       1  UNL1        0.0275
     20 H           1.6229    5.6642   10.3238 H       1  UNL1        0.0242
     21 H           3.0779    5.1240    9.4819 H       1  UNL1        0.0242
     22 H           3.1308    5.4348   11.2164 H       1  UNL1        0.0242
     23 H           2.9994    8.9031   13.0246 H       1  UNL1        0.0275
     24 H           1.6557    7.8938   12.4870 H       1  UNL1        0.0275
     25 H           3.2176    7.1620   12.8562 H       1  UNL1        0.0275
@<TRIPOS>BOND
     1    18     8    1
     2    15     7    1
     3    17     8    1
     4    19     8    1
     5     8     3    1
     6    16     7    1
     7     7    14    1
     8     7     2    1
     9     3     2    2
    10     3     4    1
    11     2     1    1
    12    21     9    1
    13     4     9    1
    14     4     5    1
    15     9    20    1
    16     9    22    1
    17     1     6    1
    18     1     5    2
    19    12     6    1
    20     6    13    1
    21     6    11    1
    22     5    10    1
    23    10    24    1
    24    10    25    1
    25    10    23    1
