@<TRIPOS>MOLECULE
1,2,3,4,5
 25 25 0 0 0
SMALL
GASTEIGER

@<TRIPOS>ATOM
      1 C           1.5171    0.2460    6.5895 C.2     1  UNL1       -0.0477
      2 C           1.8552    1.5725    6.9335 C.2     1  UNL1       -0.0584
      3 C           1.0343    2.4372    6.1487 C.3     1  UNL1        0.0231
      4 C           0.0875    1.6361    5.4307 C.2     1  UNL1       -0.0584
      5 C           0.3867    0.2822    5.6937 C.2     1  UNL1       -0.0477
      6 C           2.0231   -1.0008    7.2413 C.3     1  UNL1       -0.0395
      7 C           2.7473    2.0215    8.0435 C.3     1  UNL1       -0.0424
      8 C           0.9504    3.9212    6.3064 C.3     1  UNL1       -0.0510
      9 C          -1.0808    2.1785    4.6697 C.3     1  UNL1       -0.0424
     10 C          -0.4410   -0.9138    5.3483 C.3     1  UNL1       -0.0395
     11 H           1.3712   -1.2903    8.0679 H       1  UNL1        0.0278
     12 H           2.0464   -1.8266    6.5313 H       1  UNL1        0.0278
     13 H           3.0285   -0.8574    7.6274 H       1  UNL1        0.0278
     14 H           3.2307    1.1744    8.5215 H       1  UNL1        0.0275
     15 H           3.5128    2.7001    7.6796 H       1  UNL1        0.0275
     16 H           2.1516    2.5429    8.7948 H       1  UNL1        0.0275
     17 H           0.1619    4.1782    7.0171 H       1  UNL1        0.0242
     18 H           0.7170    4.4008    5.3582 H       1  UNL1        0.0242
     19 H           1.8905    4.3172    6.6774 H       1  UNL1        0.0242
     20 H          -1.5218    1.4173    4.0315 H       1  UNL1        0.0275
     21 H          -1.8466    2.5314    5.3629 H       1  UNL1        0.0275
     22 H          -0.7790    3.0184    4.0476 H       1  UNL1        0.0275
     23 H          -1.0554   -1.1936    6.2067 H       1  UNL1        0.0278
     24 H          -1.0991   -0.7147    4.5062 H       1  UNL1        0.0278
     25 H           0.1852   -1.7685    5.0934 H       1  UNL1        0.0278
@<TRIPOS>BOND
     1    20     9    1
     2    22     9    1
     3    24    10    1
     4     9    21    1
     5     9     4    1
     6    25    10    1
     7    10     5    1
     8    10    23    1
     9    18     8    1
    10     4     5    2
    11     4     3    1
    12     5     1    1
    13     3     8    1
    14     3     2    1
    15     8    19    1
    16     8    17    1
    17    12     6    1
    18     1     2    2
    19     1     6    1
    20     2     7    1
    21     6    13    1
    22     6    11    1
    23    15     7    1
    24     7    14    1
    25     7    16    1
