@<TRIPOS>MOLECULE
1,2,3,4,5
 25 25 0 0 0
SMALL
GASTEIGER

@<TRIPOS>ATOM
      1 C          10.8279    3.3134   10.4622 C.2     1  UNL1       -0.0658
      2 C           9.6821    2.6488    9.9662 C.2     1  UNL1       -0.0658
      3 C           9.6671    1.3192   10.5103 C.3     1  UNL1        0.0052
      4 C          10.8370    1.1534   11.2979 C.3     1  UNL1       -0.0053
      5 C          11.5223    2.4043   11.3234 C.3     1  UNL1        0.0052
      6 C          11.3172    4.6670   10.0550 C.3     1  UNL1       -0.0430
      7 C           8.7713    3.1726    8.9009 C.3     1  UNL1       -0.0430
      8 C           8.7291    0.2345   10.0835 C.3     1  UNL1       -0.0545
      9 C          11.3930   -0.1269   11.8285 C.3     1  UNL1       -0.0574
     10 C          12.8571    2.6552   11.9468 C.3     1  UNL1       -0.0545
     11 H          11.6869    5.2217   10.9149 H       1  UNL1        0.0275
     12 H          12.1372    4.5691    9.3410 H       1  UNL1        0.0275
     13 H          10.5219    5.2411    9.5868 H       1  UNL1        0.0275
     14 H           8.3412    4.1341    9.1802 H       1  UNL1        0.0275
     15 H           9.3301    3.3105    7.9737 H       1  UNL1        0.0275
     16 H           7.9641    2.4716    8.7087 H       1  UNL1        0.0275
     17 H           7.7005    0.5903   10.0654 H       1  UNL1        0.0239
     18 H           8.9867   -0.1193    9.0833 H       1  UNL1        0.0239
     19 H           8.7791   -0.6093   10.7659 H       1  UNL1        0.0239
     20 H          10.6373   -0.9048   11.8512 H       1  UNL1        0.0236
     21 H          12.2085   -0.4609   11.1837 H       1  UNL1        0.0236
     22 H          11.7871   -0.0000   12.8328 H       1  UNL1        0.0236
     23 H          12.9852    2.0444   12.8362 H       1  UNL1        0.0239
     24 H          13.6575    2.4146   11.2447 H       1  UNL1        0.0239
     25 H          12.9567    3.6993   12.2321 H       1  UNL1        0.0239
@<TRIPOS>BOND
     1    15     7    1
     2    16     7    1
     3     7    14    1
     4     7     2    1
     5    18     8    1
     6    12     6    1
     7    13     6    1
     8     2     1    2
     9     2     3    1
    10     6     1    1
    11     6    11    1
    12    17     8    1
    13     8     3    1
    14     8    19    1
    15     1     5    1
    16     3     4    1
    17    21     9    1
    18    24    10    1
    19     4     5    1
    20     4     9    1
    21     5    10    1
    22     9    20    1
    23     9    22    1
    24    10    25    1
    25    10    23    1
