@<TRIPOS>MOLECULE
1,2,3,4,5
 10 10 0 0 0
SMALL
GASTEIGER

@<TRIPOS>ATOM
      1 C           1.6902    4.4677    3.6040 C.3     1  UNL1       -0.0235
      2 C           2.0373    3.5837    2.5577 C.3     1  UNL1       -0.0127
      3 C           0.8984    2.7790    2.2571 C.2     1  UNL1       -0.0837
      4 C          -0.1351    3.1596    3.1326 C.2     1  UNL1       -0.0837
      5 C           0.3515    4.1913    3.9864 C.3     1  UNL1       -0.0127
      6 H           2.2964    5.2858    3.9718 H       1  UNL1        0.0315
      7 H           2.9450    3.6325    1.9671 H       1  UNL1        0.0352
      8 H           0.8061    2.1274    1.3975 H       1  UNL1        0.0572
      9 H          -1.1648    2.8230    3.0936 H       1  UNL1        0.0572
     10 H          -0.2577    4.7962    4.6456 H       1  UNL1        0.0352
@<TRIPOS>BOND
     1     8     3    1
     2     7     2    1
     3     3     2    1
     4     3     4    2
     5     2     1    1
     6     9     4    1
     7     4     5    1
     8     1     6    1
     9     1     5    1
    10     5    10    1
