@<TRIPOS>MOLECULE
1,3,5,7,9
 25 25 0 0 0
SMALL
GASTEIGER

@<TRIPOS>ATOM
      1 C          -0.7792    4.9953    3.6711 C.3     1  UNL1        0.0052
      2 C           0.0306    5.7768    2.6777 C.3     1  UNL1       -0.0545
      3 C          -2.1660    4.6387    3.5318 C.2     1  UNL1       -0.0658
      4 C          -3.0286    5.0027    2.3598 C.3     1  UNL1       -0.0430
      5 C          -2.6188    4.1176    4.7724 C.2     1  UNL1       -0.0658
      6 C          -4.0486    3.8745    5.1642 C.3     1  UNL1       -0.0430
      7 C          -1.5201    4.1920    5.7080 C.3     1  UNL1        0.0052
      8 C          -1.6539    4.0138    7.1926 C.3     1  UNL1       -0.0545
      9 C          -0.4059    4.7698    5.0382 C.3     1  UNL1       -0.0053
     10 C           0.8687    5.2400    5.6740 C.3     1  UNL1       -0.0574
     11 H          -0.1801    6.8448    2.7776 H       1  UNL1        0.0239
     12 H          -0.1969    5.4747    1.6558 H       1  UNL1        0.0239
     13 H           1.0949    5.6185    2.8423 H       1  UNL1        0.0239
     14 H          -3.5193    5.9587    2.5606 H       1  UNL1        0.0275
     15 H          -3.8022    4.2603    2.1682 H       1  UNL1        0.0275
     16 H          -2.4310    5.1147    1.4572 H       1  UNL1        0.0275
     17 H          -4.4191    4.7264    5.7402 H       1  UNL1        0.0275
     18 H          -4.1543    2.9820    5.7820 H       1  UNL1        0.0275
     19 H          -4.6838    3.7614    4.2874 H       1  UNL1        0.0275
     20 H          -1.8761    4.9785    7.6563 H       1  UNL1        0.0239
     21 H          -0.7354    3.6286    7.6341 H       1  UNL1        0.0239
     22 H          -2.4640    3.3271    7.4318 H       1  UNL1        0.0239
     23 H           0.8357    6.3252    5.7956 H       1  UNL1        0.0236
     24 H           1.7326    4.9924    5.0581 H       1  UNL1        0.0236
     25 H           1.0065    4.7900    6.6552 H       1  UNL1        0.0236
@<TRIPOS>BOND
     1    16     4    1
     2    12     2    1
     3    15     4    1
     4     4    14    1
     5     4     3    1
     6     2    11    1
     7     2    13    1
     8     2     1    1
     9     3     1    1
    10     3     5    2
    11     1     9    1
    12    19     6    1
    13     5     6    1
    14     5     7    1
    15     9    10    1
    16     9     7    1
    17    24    10    1
    18     6    17    1
    19     6    18    1
    20    10    23    1
    21    10    25    1
    22     7     8    1
    23     8    22    1
    24     8    21    1
    25     8    20    1
