@<TRIPOS>MOLECULE
1,2,3,4,5
 10 10 0 0 0
SMALL
GASTEIGER

@<TRIPOS>ATOM
      1 C           2.1616    5.7159    3.1610 C.3     1  UNL1       -0.0235
      2 C           2.1573    5.1093    1.8798 C.3     1  UNL1       -0.0127
      3 C           2.3592    6.1412    0.9121 C.2     1  UNL1       -0.0837
      4 C           2.4452    7.3725    1.5944 C.2     1  UNL1       -0.0837
      5 C           2.3005    7.1154    2.9931 C.3     1  UNL1       -0.0127
      6 H           2.1604    5.1908    4.1076 H       1  UNL1        0.0315
      7 H           2.2355    4.0462    1.6888 H       1  UNL1        0.0352
      8 H           2.5668    5.9834   -0.1383 H       1  UNL1        0.0572
      9 H           2.7332    8.3196    1.1577 H       1  UNL1        0.0572
     10 H           2.5023    7.8259    3.7853 H       1  UNL1        0.0352
@<TRIPOS>BOND
     1     8     3    1
     2     3     4    2
     3     3     2    1
     4     9     4    1
     5     4     5    1
     6     7     2    1
     7     2     1    1
     8     5     1    1
     9     5    10    1
    10     1     6    1
