@<TRIPOS>MOLECULE
1,2,3,4,5
 10 10 0 0 0
SMALL
GASTEIGER

@<TRIPOS>ATOM
      1 C           3.0957    5.2602   13.5760 C.2     1  UNL1       -0.0763
      2 C           1.8314    4.9326   14.1161 C.3     1  UNL1        0.0054
      3 C           1.1807    6.1328   14.4674 C.2     1  UNL1       -0.0763
      4 C           2.0505    7.2033   14.1620 C.2     1  UNL1       -0.0654
      5 C           3.2278    6.6668   13.6038 C.2     1  UNL1       -0.0654
      6 H           3.8822    4.5511   13.3412 H       1  UNL1        0.0578
      7 H           1.4979    3.9408   14.3885 H       1  UNL1        0.0394
      8 H           0.2293    6.2022   14.9808 H       1  UNL1        0.0578
      9 H           1.9049    8.2399   14.4345 H       1  UNL1        0.0615
     10 H           4.1257    7.2291   13.3765 H       1  UNL1        0.0615
@<TRIPOS>BOND
     1     6     1    1
     2    10     5    1
     3     1     5    2
     4     1     2    1
     5     5     4    1
     6     2     7    1
     7     2     3    1
     8     4     9    1
     9     4     3    2
    10     3     8    1
