@<TRIPOS>MOLECULE
1,2,3,5,6
 10 10 0 0 0
SMALL
GASTEIGER

@<TRIPOS>ATOM
      1 C           1.7502    6.7185    9.5468 C.3     1  UNL1        0.0054
      2 C           2.9578    7.0942   10.1810 C.2     1  UNL1       -0.0763
      3 C           3.6113    5.9214   10.6016 C.2     1  UNL1       -0.0654
      4 H           4.6178    5.8662   10.9976 H       1  UNL1        0.0615
      5 C           2.8110    4.8175   10.2444 C.2     1  UNL1       -0.0654
      6 C           1.6623    5.3084    9.5843 C.2     1  UNL1       -0.0763
      7 H           0.9173    4.7120    9.0708 H       1  UNL1        0.0578
      8 H           1.0857    7.3812    9.0057 H       1  UNL1        0.0394
      9 H           3.3629    8.0968   10.2209 H       1  UNL1        0.0578
     10 H           3.1128    3.7796   10.3107 H       1  UNL1        0.0615
@<TRIPOS>BOND
     1     8     1    1
     2     7     6    1
     3     1     6    1
     4     1     2    1
     5     6     5    2
     6     2     9    1
     7     2     3    2
     8     5    10    1
     9     5     3    1
    10     3     4    1
