@<TRIPOS>MOLECULE
1,2,3,4,5
 10 10 0 0 0
SMALL
GASTEIGER

@<TRIPOS>ATOM
      1 C          -1.2102    4.8745   12.1838 C.2     1  UNL1       -0.0763
      2 C          -1.2815    6.2750   12.0410 C.2     1  UNL1       -0.0654
      3 C          -0.0984    6.8263   12.5706 C.2     1  UNL1       -0.0654
      4 C           0.7052    5.7671   13.0337 C.2     1  UNL1       -0.0763
      5 C           0.0191    4.5619   12.7924 C.3     1  UNL1        0.0054
      6 H          -2.0089    4.1738   11.9809 H       1  UNL1        0.0578
      7 H          -2.1494    6.8438   11.7247 H       1  UNL1        0.0615
      8 H           0.0949    7.8832   12.7144 H       1  UNL1        0.0615
      9 H           1.6317    5.8665   13.5846 H       1  UNL1        0.0578
     10 H           0.3260    3.5784   13.1319 H       1  UNL1        0.0394
@<TRIPOS>BOND
     1     7     2    1
     2     6     1    1
     3     2     1    2
     4     2     3    1
     5     1     5    1
     6     3     8    1
     7     3     4    2
     8     5     4    1
     9     5    10    1
    10     4     9    1
