@<TRIPOS>MOLECULE
6,7,8,9,10
 25 25 0 0 0
SMALL
GASTEIGER

@<TRIPOS>ATOM
      1 C           2.6653    9.4162   -1.5700 C.3     1  UNL1       -0.0545
      2 C           2.0153    9.4012    1.4761 C.3     1  UNL1       -0.0574
      3 C          -0.2298    7.2410    2.0109 C.3     1  UNL1       -0.0545
      4 C          -1.1345    6.1747   -0.8076 C.3     1  UNL1       -0.0430
      5 C           0.6460    7.3967   -2.9767 C.3     1  UNL1       -0.0430
      6 C           1.9080    8.3245   -0.8734 C.3     1  UNL1        0.0052
      7 C           1.6229    8.3124    0.5239 C.3     1  UNL1       -0.0053
      8 C           0.6034    7.3289    0.7623 C.3     1  UNL1        0.0052
      9 C           0.1824    6.8301   -0.5195 C.2     1  UNL1       -0.0658
     10 C           1.0017    7.4092   -1.5201 C.2     1  UNL1       -0.0658
     11 H           3.4787    9.7924   -0.9521 H       1  UNL1        0.0239
     12 H           3.0779    9.0861   -2.5217 H       1  UNL1        0.0239
     13 H           1.9860   10.2483   -1.7708 H       1  UNL1        0.0239
     14 H           3.0096    9.7839    1.2650 H       1  UNL1        0.0236
     15 H           1.3061   10.2258    1.3671 H       1  UNL1        0.0236
     16 H           1.9856    9.0716    2.5118 H       1  UNL1        0.0236
     17 H          -1.1080    7.8828    1.9065 H       1  UNL1        0.0239
     18 H          -0.5755    6.2255    2.1970 H       1  UNL1        0.0239
     19 H           0.3251    7.5769    2.8836 H       1  UNL1        0.0239
     20 H          -1.7696    6.9021   -1.3198 H       1  UNL1        0.0275
     21 H          -1.0479    5.3082   -1.4615 H       1  UNL1        0.0275
     22 H          -1.6442    5.8787    0.1060 H       1  UNL1        0.0275
     23 H          -0.3081    7.9131   -3.1107 H       1  UNL1        0.0275
     24 H           1.3882    7.9124   -3.5793 H       1  UNL1        0.0275
     25 H           0.5276    6.3848   -3.3619 H       1  UNL1        0.0275
@<TRIPOS>BOND
     1    24     5    1
     2    25     5    1
     3    23     5    1
     4     5    10    1
     5    12     1    1
     6    13     1    1
     7     1    11    1
     8     1     6    1
     9    10     6    1
    10    10     9    2
    11    21     4    1
    12    20     4    1
    13     6     7    1
    14     4     9    1
    15     4    22    1
    16     9     8    1
    17     7     8    1
    18     7     2    1
    19     8     3    1
    20    14     2    1
    21    15     2    1
    22     2    16    1
    23    17     3    1
    24     3    18    1
    25     3    19    1
