@<TRIPOS>MOLECULE
1,2,3,4,5
 22 22 0 0 0
SMALL
GASTEIGER

@<TRIPOS>ATOM
      1 C           3.2781    1.3927    5.9683 C.2     1  UNL1        0.0000
      2 C           3.1849    0.1536    5.3182 C.2     1  UNL1        0.0000
      3 C           2.1745   -0.5990    5.9586 C.2     1  UNL1        0.0000
      4 C           1.6480    0.1834    7.0025 C.2     1  UNL1        0.0000
      5 C           2.3226    1.4386    7.0185 C.3     1  UNL1        0.0000
      6 SI          2.4167    2.6408    8.4597 Si      1  UNL1        0.0000
      7 C           0.7617    2.7933    9.4102 C.3     1  UNL1        0.0000
      8 C           3.6834    1.8989    9.6940 C.3     1  UNL1        0.0000
      9 C           3.0678    4.3422    7.8869 C.3     1  UNL1        0.0000
     10 H           4.0265    2.1522    5.7882 H       1  UNL1        0.0000
     11 H           3.8564   -0.2156    4.5535 H       1  UNL1        0.0000
     12 H           1.9514   -1.6419    5.7675 H       1  UNL1        0.0000
     13 H           0.9648   -0.1598    7.7679 H       1  UNL1        0.0000
     14 H           0.9387    3.2582   10.3752 H       1  UNL1        0.0000
     15 H           0.0307    3.3995    8.8866 H       1  UNL1        0.0000
     16 H           0.3167    1.8206    9.6002 H       1  UNL1        0.0000
     17 H           4.6419    1.7162    9.2182 H       1  UNL1        0.0000
     18 H           3.8533    2.5704   10.5296 H       1  UNL1        0.0000
     19 H           3.3362    0.9531   10.0982 H       1  UNL1        0.0000
     20 H           4.1528    4.3690    7.9155 H       1  UNL1        0.0000
     21 H           2.7071    5.1381    8.5302 H       1  UNL1        0.0000
     22 H           2.7633    4.5733    6.8706 H       1  UNL1        0.0000
@<TRIPOS>BOND
     1    11     2    1
     2     2     3    1
     3     2     1    2
     4    12     3    1
     5    10     1    1
     6     3     4    2
     7     1     5    1
     8    22     9    1
     9     4     5    1
    10     4    13    1
    11     5     6    1
    12     9    20    1
    13     9     6    1
    14     9    21    1
    15     6     7    1
    16     6     8    1
    17    15     7    1
    18    17     8    1
    19     7    16    1
    20     7    14    1
    21     8    19    1
    22     8    18    1
