@<TRIPOS>MOLECULE
1,2,3,4,5
 22 22 0 0 0
SMALL
GASTEIGER

@<TRIPOS>ATOM
      1 C           0.3064    1.7364    2.5873 C.3     1  UNL1        0.0000
      2 C          -0.6615    0.8552    3.1003 C.3     1  UNL1        0.0000
      3 C          -0.0184   -0.3788    3.3707 C.2     1  UNL1        0.0000
      4 C           1.3342   -0.2462    3.0228 C.2     1  UNL1        0.0000
      5 C           1.5645    1.0755    2.5576 C.3     1  UNL1        0.0000
      6 SI          3.0998    1.7749    1.7235 Si      1  UNL1        0.0000
      7 C           4.4903    2.4090    2.8760 C.3     1  UNL1        0.0000
      8 C           3.8377    0.3921    0.6246 C.3     1  UNL1        0.0000
      9 C           2.5480    3.2466    0.6391 C.3     1  UNL1        0.0000
     10 H           0.1168    2.7132    2.1651 H       1  UNL1        0.0000
     11 H          -1.7272    1.0235    3.1198 H       1  UNL1        0.0000
     12 H          -0.5202   -1.3029    3.6237 H       1  UNL1        0.0000
     13 H           2.0514   -1.0561    2.9838 H       1  UNL1        0.0000
     14 H           5.2605    2.8944    2.2832 H       1  UNL1        0.0000
     15 H           4.1095    3.1448    3.5786 H       1  UNL1        0.0000
     16 H           4.9728    1.6140    3.4367 H       1  UNL1        0.0000
     17 H           4.2018   -0.4443    1.2127 H       1  UNL1        0.0000
     18 H           4.6743    0.7705    0.0472 H       1  UNL1        0.0000
     19 H           3.1031    0.0059   -0.0741 H       1  UNL1        0.0000
     20 H           3.3752    3.6195    0.0441 H       1  UNL1        0.0000
     21 H           1.7502    2.9715   -0.0437 H       1  UNL1        0.0000
     22 H           2.1944    4.0667    1.2565 H       1  UNL1        0.0000
@<TRIPOS>BOND
     1    19     8    1
     2    21     9    1
     3    20     9    1
     4    18     8    1
     5     8    17    1
     6     8     6    1
     7     9    22    1
     8     9     6    1
     9     6     5    1
    10     6     7    1
    11    10     1    1
    12    14     7    1
    13     5     1    1
    14     5     4    1
    15     1     2    1
    16     7    16    1
    17     7    15    1
    18    13     4    1
    19     4     3    2
    20     2    11    1
    21     2     3    1
    22     3    12    1
