@<TRIPOS>MOLECULE
1,2,3,4,5
 25 25 0 0 0
SMALL
GASTEIGER

@<TRIPOS>ATOM
      1 C           1.5959   -1.1316    3.3874 C.3     1  UNL1        0.0231
      2 C           2.9839   -0.9152    3.1284 C.2     1  UNL1       -0.0584
      3 C           3.6277   -0.6758    4.3645 C.2     1  UNL1       -0.0477
      4 C           2.6522   -0.8052    5.4058 C.2     1  UNL1       -0.0477
      5 C           1.4066   -1.1062    4.8074 C.2     1  UNL1       -0.0584
      6 C           0.5759   -1.6361    2.4139 C.3     1  UNL1       -0.0510
      7 C           3.7053   -1.1364    1.8417 C.3     1  UNL1       -0.0424
      8 C           5.1163   -0.6231    4.5201 C.3     1  UNL1       -0.0395
      9 C           2.9085   -0.8320    6.8811 C.3     1  UNL1       -0.0395
     10 C           0.1611   -1.5105    5.5312 C.3     1  UNL1       -0.0424
     11 H          -0.3936   -1.1775    2.5940 H       1  UNL1        0.0242
     12 H           0.8680   -1.4213    1.3899 H       1  UNL1        0.0242
     13 H           0.4640   -2.7172    2.5168 H       1  UNL1        0.0242
     14 H           4.2822   -2.0619    1.9054 H       1  UNL1        0.0275
     15 H           3.0117   -1.2306    1.0121 H       1  UNL1        0.0275
     16 H           4.3982   -0.3267    1.6320 H       1  UNL1        0.0275
     17 H           5.5461   -1.5848    4.2317 H       1  UNL1        0.0278
     18 H           5.5549    0.1383    3.8779 H       1  UNL1        0.0278
     19 H           5.4123   -0.4264    5.5483 H       1  UNL1        0.0278
     20 H           2.8692   -1.8610    7.2435 H       1  UNL1        0.0278
     21 H           3.8848   -0.4238    7.1292 H       1  UNL1        0.0278
     22 H           2.1536   -0.2590    7.4179 H       1  UNL1        0.0278
     23 H           0.0890   -1.0058    6.4915 H       1  UNL1        0.0275
     24 H          -0.7232   -1.2680    4.9488 H       1  UNL1        0.0275
     25 H           0.1651   -2.5875    5.7107 H       1  UNL1        0.0275
@<TRIPOS>BOND
     1    15     7    1
     2    12     6    1
     3    16     7    1
     4     7    14    1
     5     7     2    1
     6     6    13    1
     7     6    11    1
     8     6     1    1
     9     2     1    1
    10     2     3    2
    11     1     5    1
    12    18     8    1
    13    17     8    1
    14     3     8    1
    15     3     4    1
    16     8    19    1
    17     5     4    2
    18     5    10    1
    19    24    10    1
    20     4     9    1
    21    10    25    1
    22    10    23    1
    23     9    21    1
    24     9    20    1
    25     9    22    1
