@<TRIPOS>MOLECULE
1,2,3,4,5
 25 25 0 0 0
SMALL
GASTEIGER

@<TRIPOS>ATOM
      1 C           1.2956    3.7063    2.3393 C.2     1  UNL1       -0.0477
      2 C           2.7002    3.4509    2.3100 C.2     1  UNL1       -0.0477
      3 C           2.9471    2.5689    1.2421 C.2     1  UNL1       -0.0584
      4 C           1.6932    2.3144    0.5697 C.3     1  UNL1        0.0231
      5 C           0.6903    3.0593    1.2209 C.2     1  UNL1       -0.0584
      6 C           0.6644    4.7380    3.2186 C.3     1  UNL1       -0.0395
      7 C           3.6883    4.0817    3.2363 C.3     1  UNL1       -0.0395
      8 C           4.2749    2.0934    0.7432 C.3     1  UNL1       -0.0424
      9 C           1.5433    1.5171   -0.6852 C.3     1  UNL1       -0.0510
     10 C          -0.7449    3.1602    0.8185 C.3     1  UNL1       -0.0424
     11 H           0.9336    5.7383    2.8741 H       1  UNL1        0.0278
     12 H          -0.4205    4.6632    3.2066 H       1  UNL1        0.0278
     13 H           1.0120    4.6359    4.2453 H       1  UNL1        0.0278
     14 H           3.7165    5.1616    3.0824 H       1  UNL1        0.0278
     15 H           3.4215    3.9003    4.2760 H       1  UNL1        0.0278
     16 H           4.6879    3.6891    3.0749 H       1  UNL1        0.0278
     17 H           4.5522    2.6398   -0.1599 H       1  UNL1        0.0275
     18 H           5.0518    2.2429    1.4877 H       1  UNL1        0.0275
     19 H           4.2383    1.0347    0.4975 H       1  UNL1        0.0275
     20 H           1.7424    2.1347   -1.5627 H       1  UNL1        0.0242
     21 H           2.2386    0.6824   -0.6902 H       1  UNL1        0.0242
     22 H           0.5356    1.1188   -0.7672 H       1  UNL1        0.0242
     23 H          -0.9044    4.0243    0.1712 H       1  UNL1        0.0275
     24 H          -1.0530    2.2692    0.2774 H       1  UNL1        0.0275
     25 H          -1.3864    3.2681    1.6903 H       1  UNL1        0.0275
@<TRIPOS>BOND
     1    20     9    1
     2    22     9    1
     3    21     9    1
     4     9     4    1
     5    17     8    1
     6    23    10    1
     7    24    10    1
     8    19     8    1
     9     4     5    1
    10     4     3    1
    11     8     3    1
    12     8    18    1
    13    10     5    1
    14    10    25    1
    15     5     1    2
    16     3     2    2
    17     2     1    1
    18     2     7    1
    19     1     6    1
    20    11     6    1
    21    16     7    1
    22    14     7    1
    23    12     6    1
    24     6    13    1
    25     7    15    1
