@<TRIPOS>MOLECULE
6,7,8,9,10
 52 54 0 0 0
SMALL
GASTEIGER

@<TRIPOS>ATOM
      1 SI          4.0220    2.2506    1.1078 Si      1  UNL1        0.0000
      2 SI          2.3834    1.3761   -0.3765 Si      1  UNL1        0.0000
      3 SI          3.9814    4.6325    1.1814 Si      1  UNL1        0.0000
      4 SI          6.1833    1.4119    0.5711 Si      1  UNL1        0.0000
      5 C           3.8202    1.7382    2.9826 C.3     1  UNL1        0.0000
      6 C           2.5679    2.2134    3.6430 C.3     1  UNL1        0.0000
      7 C           1.3648    1.6062    3.2859 C.3     1  UNL1        0.0000
      8 C           1.3627    0.2495    2.9317 C.2     1  UNL1        0.0000
      9 C           2.6077   -0.4213    2.9110 C.2     1  UNL1        0.0000
     10 C           3.7646    0.2666    3.2157 C.3     1  UNL1        0.0000
     11 C           0.6843    2.2448   -0.2129 C.3     1  UNL1        0.0000
     12 C           3.0410    1.7826   -2.1269 C.3     1  UNL1        0.0000
     13 C           2.0732   -0.5163   -0.3892 C.3     1  UNL1        0.0000
     14 C           2.4658    5.4278    2.0516 C.3     1  UNL1        0.0000
     15 C           5.5442    5.3298    2.0456 C.3     1  UNL1        0.0000
     16 C           3.9867    5.3124   -0.6039 C.3     1  UNL1        0.0000
     17 C           6.9279    2.4146   -0.8745 C.3     1  UNL1        0.0000
     18 C           6.1376   -0.4219    0.0170 C.3     1  UNL1        0.0000
     19 C           7.4284    1.5193    2.0255 C.3     1  UNL1        0.0000
     20 H           1.3564   -0.8181    0.3660 H       1  UNL1        0.0000
     21 H           1.6898   -0.8448   -1.3523 H       1  UNL1        0.0000
     22 H           2.9928   -1.0623   -0.2035 H       1  UNL1        0.0000
     23 H           3.9520    1.2320   -2.3402 H       1  UNL1        0.0000
     24 H           2.3213    1.5292   -2.9001 H       1  UNL1        0.0000
     25 H           3.2683    2.8383   -2.2298 H       1  UNL1        0.0000
     26 H           0.7900    3.3196   -0.3258 H       1  UNL1        0.0000
     27 H          -0.0182    1.9049   -0.9695 H       1  UNL1        0.0000
     28 H           0.2337    2.0613    0.7568 H       1  UNL1        0.0000
     29 H           5.6193    4.9889    3.0736 H       1  UNL1        0.0000
     30 H           6.4451    5.0105    1.5307 H       1  UNL1        0.0000
     31 H           5.5477    6.4164    2.0642 H       1  UNL1        0.0000
     32 H           2.3099    6.4518    1.7211 H       1  UNL1        0.0000
     33 H           1.5559    4.8752    1.8373 H       1  UNL1        0.0000
     34 H           2.5866    5.4531    3.1304 H       1  UNL1        0.0000
     35 H           4.1184    6.3903   -0.6263 H       1  UNL1        0.0000
     36 H           4.7911    4.8753   -1.1865 H       1  UNL1        0.0000
     37 H           3.0542    5.0894   -1.1128 H       1  UNL1        0.0000
     38 H           7.8880    2.0196   -1.1939 H       1  UNL1        0.0000
     39 H           6.2685    2.4004   -1.7363 H       1  UNL1        0.0000
     40 H           7.0791    3.4532   -0.5980 H       1  UNL1        0.0000
     41 H           7.1614    0.8370    2.8264 H       1  UNL1        0.0000
     42 H           8.4396    1.2714    1.7131 H       1  UNL1        0.0000
     43 H           7.4543    2.5207    2.4444 H       1  UNL1        0.0000
     44 H           5.6969   -1.0571    0.7793 H       1  UNL1        0.0000
     45 H           5.5453   -0.5380   -0.8855 H       1  UNL1        0.0000
     46 H           7.1310   -0.8088   -0.1942 H       1  UNL1        0.0000
     47 H           2.5292    3.2473    3.9501 H       1  UNL1        0.0000
     48 H           0.4280    2.1280    3.3849 H       1  UNL1        0.0000
     49 H           0.4620   -0.2521    2.6147 H       1  UNL1        0.0000
     50 H           2.6303   -1.4817    2.7241 H       1  UNL1        0.0000
     51 H           4.7040   -0.2655    3.1968 H       1  UNL1        0.0000
     52 H           4.6861    2.1472    3.5029 H       1  UNL1        0.0000
@<TRIPOS>BOND
     1    24    12    1
     2    23    12    1
     3    25    12    1
     4    12     2    1
     5    39    17    1
     6    21    13    1
     7    38    17    1
     8    36    16    1
     9    37    16    1
    10    27    11    1
    11    45    18    1
    12    17    40    1
    13    17     4    1
    14    35    16    1
    15    16     3    1
    16    13     2    1
    17    13    22    1
    18    13    20    1
    19     2    11    1
    20     2     1    1
    21    26    11    1
    22    11    28    1
    23    46    18    1
    24    18     4    1
    25    18    44    1
    26     4     1    1
    27     4    19    1
    28     1     3    1
    29     1     5    1
    30     3    15    1
    31     3    14    1
    32    30    15    1
    33    42    19    1
    34    32    14    1
    35    33    14    1
    36    19    43    1
    37    19    41    1
    38    15    31    1
    39    15    29    1
    40    14    34    1
    41    49     8    1
    42    50     9    1
    43     9     8    2
    44     9    10    1
    45     8     7    1
    46     5    10    1
    47     5    52    1
    48     5     6    1
    49    51    10    1
    50     7    48    1
    51     7     6    1
    52     6    47    1
    53     1    10    0
    54     1     6    0
