@<TRIPOS>MOLECULE
1,2,3,8,9
 16 17 0 0 0
SMALL
GASTEIGER

@<TRIPOS>ATOM
      1 C           2.2619   -1.7897    5.8481 C.2     1  UNL1       -0.0642
      2 C           3.3538   -2.4244    5.2203 C.2     1  UNL1       -0.0684
      3 C           4.5305   -1.6663    5.5108 C.3     1  UNL1        0.0488
      4 C           5.8974   -1.8952    5.2725 C.2     1  UNL1       -0.0684
      5 C           6.8189   -1.0172    5.7881 C.2     1  UNL1       -0.0645
      6 C           6.4219    0.0996    6.5423 C.2     1  UNL1       -0.0617
      7 C           5.0960    0.3669    6.7772 C.2     1  UNL1       -0.0574
      8 C           4.1235   -0.5077    6.2583 C.2     1  UNL1       -0.0322
      9 C           2.6994   -0.5671    6.4122 C.2     1  UNL1       -0.0576
     10 H           1.2688   -2.2089    5.9626 H       1  UNL1        0.0615
     11 H           3.3485   -3.4284    4.8235 H       1  UNL1        0.0584
     12 H           6.2124   -2.7764    4.7303 H       1  UNL1        0.0584
     13 H           7.8736   -1.1911    5.6295 H       1  UNL1        0.0615
     14 H           7.1830    0.7486    6.9522 H       1  UNL1        0.0618
     15 H           4.7950    1.2119    7.3826 H       1  UNL1        0.0621
     16 H           2.1334    0.0361    7.1121 H       1  UNL1        0.0621
@<TRIPOS>BOND
     1    12     4    1
     2    11     2    1
     3     2     3    1
     4     2     1    2
     5     4     3    1
     6     4     5    2
     7     3     8    1
     8    13     5    1
     9     5     6    1
    10     1    10    1
    11     1     9    1
    12     8     9    2
    13     8     7    1
    14     9    16    1
    15     6     7    2
    16     6    14    1
    17     7    15    1
