@<TRIPOS>MOLECULE
3,4,6,7,8
 54 57 0 0 0
SMALL
GASTEIGER

@<TRIPOS>ATOM
      1 SI          3.4054   11.7555    2.5879 Si      1  UNL1        0.0000
      2 SI         -0.2192    8.8228    6.1677 Si      1  UNL1        0.0000
      3 C           2.3493   11.3481    4.0842 C.3     1  UNL1        0.0000
      4 C           1.2828   10.4071    4.1369 C.3     1  UNL1        0.0000
      5 H           0.9174    9.8516    3.2825 H       1  UNL1        0.0000
      6 C           0.8525   10.1967    5.4707 C.3     1  UNL1        0.0000
      7 C           1.7404   10.9691    6.3025 C.ar    1  UNL1        0.0000
      8 C           2.6585   11.6762    5.4539 C.ar    1  UNL1        0.0000
      9 C           3.6403   12.5002    6.0309 C.ar    1  UNL1        0.0000
     10 H           4.3308   13.0467    5.4062 H       1  UNL1        0.0000
     11 C           3.7090   12.5988    7.3994 C.ar    1  UNL1        0.0000
     12 H           4.4617   13.2260    7.8533 H       1  UNL1        0.0000
     13 C           2.8167   11.9007    8.2276 C.ar    1  UNL1        0.0000
     14 H           2.9039   12.0068    9.2985 H       1  UNL1        0.0000
     15 C           1.8380   11.0960    7.6979 C.ar    1  UNL1        0.0000
     16 H           1.1451   10.5733    8.3416 H       1  UNL1        0.0000
     17 C           5.2537   11.9731    3.0380 C.3     1  UNL1        0.0000
     18 H           5.4668   12.9831    3.3730 H       1  UNL1        0.0000
     19 H           5.5648   11.2875    3.8202 H       1  UNL1        0.0000
     20 H           5.8754   11.7815    2.1682 H       1  UNL1        0.0000
     21 C           2.8121   13.3256    1.6777 C.3     1  UNL1        0.0000
     22 H           2.6306   14.1316    2.3849 H       1  UNL1        0.0000
     23 H           3.5654   13.6714    0.9763 H       1  UNL1        0.0000
     24 H           1.8986   13.1493    1.1195 H       1  UNL1        0.0000
     25 C           3.3279   10.2381    1.4387 C.ar    1  UNL1        0.0000
     26 C           3.3408    8.9462    1.9593 C.ar    1  UNL1        0.0000
     27 H           3.3649    8.8110    3.0313 H       1  UNL1        0.0000
     28 C           3.3261    7.8373    1.1327 C.ar    1  UNL1        0.0000
     29 H           3.3340    6.8445    1.5596 H       1  UNL1        0.0000
     30 C           3.3031    7.9997   -0.2424 C.ar    1  UNL1        0.0000
     31 H           3.2875    7.1366   -0.8918 H       1  UNL1        0.0000
     32 C           3.3078    9.2755   -0.7803 C.ar    1  UNL1        0.0000
     33 H           3.2997    9.4094   -1.8525 H       1  UNL1        0.0000
     34 C           3.3242   10.3782    0.0551 C.ar    1  UNL1        0.0000
     35 H           3.3392   11.3688   -0.3744 H       1  UNL1        0.0000
     36 C          -1.5843    9.5790    7.2690 C.3     1  UNL1        0.0000
     37 H          -2.5555    9.1276    7.1024 H       1  UNL1        0.0000
     38 H          -1.3440    9.4377    8.3184 H       1  UNL1        0.0000
     39 H          -1.6849   10.6503    7.0990 H       1  UNL1        0.0000
     40 C           0.8737    7.6602    7.2347 C.3     1  UNL1        0.0000
     41 H           1.3901    8.1946    8.0253 H       1  UNL1        0.0000
     42 H           0.2691    6.8859    7.6982 H       1  UNL1        0.0000
     43 H           1.6282    7.1647    6.6309 H       1  UNL1        0.0000
     44 C          -0.8292    7.6966    4.7599 C.ar    1  UNL1        0.0000
     45 C           0.0743    7.2105    3.8177 C.ar    1  UNL1        0.0000
     46 H           1.1099    7.5129    3.8698 H       1  UNL1        0.0000
     47 C          -0.3242    6.3430    2.8162 C.ar    1  UNL1        0.0000
     48 H           0.3952    5.9886    2.0920 H       1  UNL1        0.0000
     49 C          -1.6451    5.9346    2.7395 C.ar    1  UNL1        0.0000
     50 H          -1.9621    5.2615    1.9563 H       1  UNL1        0.0000
     51 C          -2.5544    6.3885    3.6798 C.ar    1  UNL1        0.0000
     52 H          -3.5845    6.0649    3.6347 H       1  UNL1        0.0000
     53 C          -2.1445    7.2538    4.6784 C.ar    1  UNL1        0.0000
     54 H          -2.8616    7.5913    5.4107 H       1  UNL1        0.0000
@<TRIPOS>BOND
     1    33    32    1
     2    31    30    1
     3    32    30   ar
     4    32    34   ar
     5    35    34    1
     6    30    28   ar
     7    34    25   ar
     8    23    21    1
     9    24    21    1
    10    28    29    1
    11    28    26   ar
    12    25    26   ar
    13    25     1    1
    14    21    22    1
    15    21     1    1
    16    50    49    1
    17    26    27    1
    18    48    47    1
    19    20    17    1
    20     1    17    1
    21     1     3    1
    22    49    47   ar
    23    49    51   ar
    24    47    45   ar
    25    17    18    1
    26    17    19    1
    27     5     4    1
    28    52    51    1
    29    51    53   ar
    30    45    46    1
    31    45    44   ar
    32     3     4    1
    33     3     8    1
    34     4     6    1
    35    53    44   ar
    36    53    54    1
    37    44     2    1
    38    10     9    1
    39     8     9   ar
    40     8     7   ar
    41     6     2    1
    42     6     7    1
    43     9    11   ar
    44     2    40    1
    45     2    36    1
    46     7    15   ar
    47    43    40    1
    48    39    36    1
    49    37    36    1
    50    40    42    1
    51    40    41    1
    52    36    38    1
    53    11    12    1
    54    11    13   ar
    55    15    13   ar
    56    15    16    1
    57    13    14    1
