@<TRIPOS>MOLECULE
3,4,5,7,8
 40 41 0 0 0
SMALL
GASTEIGER

@<TRIPOS>ATOM
      1 SI          9.2136   -2.5778   -7.4810 Si      1  UNL1        0.0000
      2 SI          6.5858   -7.7815   -6.6127 Si      1  UNL1        0.0000
      3 C           9.8170   -5.4542   -7.6076 C.ar    1  UNL1        0.0000
      4 C           8.9678   -4.4020   -7.1061 C.3     1  UNL1        0.0000
      5 C           7.7989   -5.0452   -6.6126 C.3     1  UNL1        0.0000
      6 H           6.8963   -4.5246   -6.3178 H       1  UNL1        0.0000
      7 C           7.9146   -6.4571   -6.6982 C.3     1  UNL1        0.0000
      8 C           9.1692   -6.7113   -7.3627 C.ar    1  UNL1        0.0000
      9 C           9.7759   -7.9043   -7.7908 C.ar    1  UNL1        0.0000
     10 H           9.2975   -8.8555   -7.6071 H       1  UNL1        0.0000
     11 C          10.9870   -7.8431   -8.4348 C.ar    1  UNL1        0.0000
     12 H          11.4630   -8.7521   -8.7708 H       1  UNL1        0.0000
     13 C          11.6285   -6.6153   -8.6607 C.ar    1  UNL1        0.0000
     14 H          12.5841   -6.6093   -9.1635 H       1  UNL1        0.0000
     15 C          11.0646   -5.4305   -8.2549 C.ar    1  UNL1        0.0000
     16 H          11.5693   -4.4925   -8.4328 H       1  UNL1        0.0000
     17 C           4.8880   -7.0963   -6.0532 C.3     1  UNL1        0.0000
     18 H           4.8348   -6.0141   -6.1060 H       1  UNL1        0.0000
     19 H           4.6438   -7.3968   -5.0415 H       1  UNL1        0.0000
     20 H           4.1096   -7.4867   -6.7002 H       1  UNL1        0.0000
     21 C           7.1968   -9.2148   -5.5025 C.3     1  UNL1        0.0000
     22 H           8.0663   -8.9215   -4.9148 H       1  UNL1        0.0000
     23 H           7.4851  -10.0732   -6.1020 H       1  UNL1        0.0000
     24 H           6.4300   -9.5510   -4.8126 H       1  UNL1        0.0000
     25 C           6.3006   -8.4264   -8.3963 C.3     1  UNL1        0.0000
     26 H           5.8609   -7.6576   -9.0253 H       1  UNL1        0.0000
     27 H           5.6231   -9.2752   -8.3958 H       1  UNL1        0.0000
     28 H           7.2237   -8.7417   -8.8712 H       1  UNL1        0.0000
     29 C           9.9642   -2.3434   -9.2274 C.3     1  UNL1        0.0000
     30 H          11.0489   -2.3283   -9.2020 H       1  UNL1        0.0000
     31 H           9.6403   -1.4005   -9.6573 H       1  UNL1        0.0000
     32 H           9.6615   -3.1343   -9.9068 H       1  UNL1        0.0000
     33 C          10.3473   -1.7233   -6.2016 C.3     1  UNL1        0.0000
     34 H          11.3728   -2.0644   -6.3067 H       1  UNL1        0.0000
     35 H          10.0432   -1.9405   -5.1810 H       1  UNL1        0.0000
     36 H          10.3430   -0.6449   -6.3300 H       1  UNL1        0.0000
     37 C           7.5035   -1.7207   -7.5212 C.3     1  UNL1        0.0000
     38 H           7.6130   -0.7020   -7.8778 H       1  UNL1        0.0000
     39 H           7.0328   -1.6712   -6.5467 H       1  UNL1        0.0000
     40 H           6.8233   -2.2283   -8.1978 H       1  UNL1        0.0000
@<TRIPOS>BOND
     1    32    29    1
     2    31    29    1
     3    29    30    1
     4    29     1    1
     5    14    13    1
     6    26    25    1
     7    28    25    1
     8    12    11    1
     9    13    11   ar
    10    13    15   ar
    11    11     9   ar
    12    16    15    1
    13    25    27    1
    14    25     2    1
    15    15     3   ar
    16    40    37    1
    17    38    37    1
    18     9    10    1
    19     9     8   ar
    20     3     8   ar
    21     3     4    1
    22    37     1    1
    23    37    39    1
    24     1     4    1
    25     1    33    1
    26     8     7    1
    27     4     5    1
    28    20    17    1
    29     7     2    1
    30     7     5    1
    31     2    17    1
    32     2    21    1
    33     5     6    1
    34    36    33    1
    35    34    33    1
    36    33    35    1
    37    18    17    1
    38    23    21    1
    39    17    19    1
    40    21    22    1
    41    21    24    1
