@<TRIPOS>MOLECULE
1,3,4,5,6
 28 29 0 0 0
SMALL
GASTEIGER

@<TRIPOS>ATOM
      1 C           3.1357    8.0478    8.0290 C.3     1  UNL1        0.0136
      2 H           3.5109    7.1291    8.4563 H       1  UNL1        0.0401
      3 C           3.9432    9.0820    7.4679 C.ar    1  UNL1       -0.0323
      4 C           3.1039   10.2485    7.2906 C.ar    1  UNL1       -0.0179
      5 C           1.7844    9.9191    7.7535 C.2     1  UNL1       -0.0379
      6 C           1.8366    8.5852    8.2256 C.2     1  UNL1       -0.0715
      7 H           1.0406    8.0748    8.7563 H       1  UNL1        0.0581
      8 C           5.3242    9.1582    7.1992 C.ar    1  UNL1       -0.0574
      9 H           5.9641    8.3166    7.4212 H       1  UNL1        0.0621
     10 C           5.8488   10.3263    6.7106 C.ar    1  UNL1       -0.0614
     11 H           6.9061   10.3968    6.5042 H       1  UNL1        0.0618
     12 C           5.0345   11.4512    6.5029 C.ar    1  UNL1       -0.0612
     13 H           5.4827   12.3579    6.1254 H       1  UNL1        0.0618
     14 C           3.6954   11.4311    6.7974 C.ar    1  UNL1       -0.0540
     15 H           3.1130   12.3296    6.6576 H       1  UNL1        0.0624
     16 C           0.6416   10.9009    7.9481 C.3     1  UNL1       -0.0124
     17 C           1.0951   11.9812    8.9458 C.3     1  UNL1       -0.0560
     18 H           1.3886   11.5221    9.8875 H       1  UNL1        0.0238
     19 H           0.2799   12.6751    9.1388 H       1  UNL1        0.0238
     20 H           1.9427   12.5424    8.5650 H       1  UNL1        0.0238
     21 C          -0.5926   10.2034    8.5338 C.3     1  UNL1       -0.0560
     22 H          -0.9333    9.4029    7.8812 H       1  UNL1        0.0238
     23 H          -1.4009   10.9239    8.6360 H       1  UNL1        0.0238
     24 H          -0.3782    9.7982    9.5205 H       1  UNL1        0.0238
     25 C           0.2478   11.5538    6.6141 C.3     1  UNL1       -0.0560
     26 H          -0.1310   10.8042    5.9196 H       1  UNL1        0.0238
     27 H           1.0906   12.0541    6.1450 H       1  UNL1        0.0238
     28 H          -0.5356   12.2908    6.7815 H       1  UNL1        0.0238
@<TRIPOS>BOND
     1    26    25    1
     2    13    12    1
     3    27    25    1
     4    12    10   ar
     5    12    14   ar
     6    11    10    1
     7    25    28    1
     8    25    16    1
     9    15    14    1
    10    10     8   ar
    11    14     4   ar
    12     8     9    1
    13     8     3   ar
    14     4     3   ar
    15     4     5    1
    16     3     1    1
    17     5    16    1
    18     5     6    2
    19    22    21    1
    20    16    21    1
    21    16    17    1
    22     1     6    1
    23     1     2    1
    24     6     7    1
    25    21    23    1
    26    21    24    1
    27    20    17    1
    28    17    19    1
    29    17    18    1
