@<TRIPOS>MOLECULE
3,4,5,6,7
 40 41 0 0 0
SMALL
GASTEIGER

@<TRIPOS>ATOM
      1 SI          1.7968    4.6209    7.0571 Si      1  UNL1        0.0000
      2 SI          1.7969    7.6292    2.1285 Si      1  UNL1        0.0000
      3 C           2.4856    5.8454    5.8078 C.2     1  UNL1        0.0000
      4 C           3.8180    6.3287    5.5651 C.ar    1  UNL1        0.0000
      5 C           3.7976    7.1175    4.3511 C.ar    1  UNL1        0.0000
      6 C           2.4715    7.0439    3.7921 C.3     1  UNL1        0.0000
      7 C           1.7275    6.2241    4.6695 C.2     1  UNL1        0.0000
      8 H           0.7182    5.8803    4.4713 H       1  UNL1        0.0000
      9 C           5.0479    6.0445    6.1787 C.ar    1  UNL1        0.0000
     10 H           5.0886    5.3867    7.0359 H       1  UNL1        0.0000
     11 C           6.2032    6.5620    5.6422 C.ar    1  UNL1        0.0000
     12 H           7.1577    6.3158    6.0846 H       1  UNL1        0.0000
     13 C           6.1705    7.4091    4.5241 C.ar    1  UNL1        0.0000
     14 H           7.0973    7.8187    4.1518 H       1  UNL1        0.0000
     15 C           4.9899    7.6961    3.8812 C.ar    1  UNL1        0.0000
     16 H           4.9817    8.3117    2.9938 H       1  UNL1        0.0000
     17 C           1.8770    2.8695    6.2936 C.3     1  UNL1        0.0000
     18 H           1.4080    2.8409    5.3149 H       1  UNL1        0.0000
     19 H           1.3693    2.1467    6.9244 H       1  UNL1        0.0000
     20 H           2.9033    2.5364    6.1722 H       1  UNL1        0.0000
     21 C           2.6721    4.5478    8.7588 C.3     1  UNL1        0.0000
     22 H           2.4089    5.3832    9.4005 H       1  UNL1        0.0000
     23 H           3.7534    4.5098    8.6787 H       1  UNL1        0.0000
     24 H           2.3626    3.6430    9.2728 H       1  UNL1        0.0000
     25 C          -0.0206    5.1314    7.3643 C.3     1  UNL1        0.0000
     26 H          -0.1452    6.2139    7.3637 H       1  UNL1        0.0000
     27 H          -0.3866    4.7534    8.3137 H       1  UNL1        0.0000
     28 H          -0.6719    4.7362    6.5909 H       1  UNL1        0.0000
     29 C           0.1193    8.5114    2.3656 C.3     1  UNL1        0.0000
     30 H          -0.3172    8.7685    1.4051 H       1  UNL1        0.0000
     31 H           0.2283    9.4310    2.9358 H       1  UNL1        0.0000
     32 H          -0.5951    7.8811    2.8891 H       1  UNL1        0.0000
     33 C           2.9959    8.7256    1.1275 C.3     1  UNL1        0.0000
     34 H           2.5137    9.0418    0.2079 H       1  UNL1        0.0000
     35 H           3.8977    8.1884    0.8504 H       1  UNL1        0.0000
     36 H           3.2786    9.6195    1.6728 H       1  UNL1        0.0000
     37 C           1.4929    6.0301    1.1165 C.3     1  UNL1        0.0000
     38 H           1.0909    6.2709    0.1386 H       1  UNL1        0.0000
     39 H           0.7865    5.3685    1.6071 H       1  UNL1        0.0000
     40 H           2.4121    5.4733    0.9651 H       1  UNL1        0.0000
@<TRIPOS>BOND
     1    38    37    1
     2    34    33    1
     3    35    33    1
     4    40    37    1
     5    37    39    1
     6    37     2    1
     7    33    36    1
     8    33     2    1
     9    30    29    1
    10     2    29    1
    11     2     6    1
    12    29    32    1
    13    29    31    1
    14    16    15    1
    15     6     5    1
    16     6     7    1
    17    15     5   ar
    18    15    13   ar
    19    14    13    1
    20     5     4   ar
    21     8     7    1
    22    13    11   ar
    23     7     3    2
    24    18    17    1
    25     4     3    1
    26     4     9   ar
    27    11    12    1
    28    11     9   ar
    29     3     1    1
    30    20    17    1
    31     9    10    1
    32    17    19    1
    33    17     1    1
    34    28    25    1
    35     1    25    1
    36     1    21    1
    37    26    25    1
    38    25    27    1
    39    23    21    1
    40    21    24    1
    41    21    22    1
