@<TRIPOS>MOLECULE
3,4,5,6,7
 54 57 0 0 0
SMALL
GASTEIGER

@<TRIPOS>ATOM
      1 SI         -0.9191   11.1552    0.9783 Si      1  UNL1        0.0000
      2 SI         -1.4771   15.8003    4.2958 Si      1  UNL1        0.0000
      3 C          -0.7968   12.0395    2.6362 C.3     1  UNL1        0.0000
      4 C          -1.7589   11.7011    3.6650 C.ar    1  UNL1        0.0000
      5 C          -2.0881   12.8964    4.3978 C.ar    1  UNL1        0.0000
      6 C          -1.3148   13.9795    3.8557 C.3     1  UNL1        0.0000
      7 C          -0.5883   13.4428    2.7663 C.3     1  UNL1        0.0000
      8 H          -0.0257   14.0528    2.0689 H       1  UNL1        0.0000
      9 C          -2.4916   10.5260    3.8986 C.ar    1  UNL1        0.0000
     10 H          -2.2941    9.6351    3.3208 H       1  UNL1        0.0000
     11 C          -3.5179   10.5511    4.8117 C.ar    1  UNL1        0.0000
     12 H          -4.1233    9.6696    4.9567 H       1  UNL1        0.0000
     13 C          -3.8206   11.7103    5.5431 C.ar    1  UNL1        0.0000
     14 H          -4.6374   11.6860    6.2485 H       1  UNL1        0.0000
     15 C          -3.1136   12.8729    5.3587 C.ar    1  UNL1        0.0000
     16 H          -3.3724   13.7737    5.8975 H       1  UNL1        0.0000
     17 C          -0.2436    9.3764    0.9028 C.3     1  UNL1        0.0000
     18 H           0.8381    9.3501    0.9776 H       1  UNL1        0.0000
     19 H          -0.5025    8.9323   -0.0533 H       1  UNL1        0.0000
     20 H          -0.6505    8.7362    1.6791 H       1  UNL1        0.0000
     21 C          -0.1320   12.1444   -0.4526 C.3     1  UNL1        0.0000
     22 H          -0.5932   11.8503   -1.3902 H       1  UNL1        0.0000
     23 H           0.9295   11.9407   -0.5398 H       1  UNL1        0.0000
     24 H          -0.2704   13.2154   -0.3496 H       1  UNL1        0.0000
     25 C          -2.8094   11.1386    0.7215 C.ar    1  UNL1        0.0000
     26 C          -3.5372    9.9677    0.5396 C.ar    1  UNL1        0.0000
     27 H          -3.0180    9.0216    0.4913 H       1  UNL1        0.0000
     28 C          -4.9158    9.9914    0.4245 C.ar    1  UNL1        0.0000
     29 H          -5.4615    9.0688    0.2859 H       1  UNL1        0.0000
     30 C          -5.5970   11.1943    0.4897 C.ar    1  UNL1        0.0000
     31 H          -6.6737   11.2143    0.4025 H       1  UNL1        0.0000
     32 C          -4.8903   12.3718    0.6687 C.ar    1  UNL1        0.0000
     33 H          -5.4131   13.3160    0.7198 H       1  UNL1        0.0000
     34 C          -3.5140   12.3389    0.7848 C.ar    1  UNL1        0.0000
     35 H          -2.9719   13.2625    0.9319 H       1  UNL1        0.0000
     36 C          -0.3921   16.8203    3.0944 C.3     1  UNL1        0.0000
     37 H          -0.4964   17.8791    3.3061 H       1  UNL1        0.0000
     38 H           0.6576   16.5642    3.1963 H       1  UNL1        0.0000
     39 H          -0.6846   16.6684    2.0594 H       1  UNL1        0.0000
     40 C          -1.0584   16.2028    6.1134 C.3     1  UNL1        0.0000
     41 H          -1.2001   17.2599    6.3168 H       1  UNL1        0.0000
     42 H          -0.0240   15.9583    6.3409 H       1  UNL1        0.0000
     43 H          -1.6853   15.6471    6.8054 H       1  UNL1        0.0000
     44 C          -3.2942   16.2742    3.9635 C.ar    1  UNL1        0.0000
     45 C          -4.2029   15.4059    3.3656 C.ar    1  UNL1        0.0000
     46 H          -3.8880   14.4114    3.0851 H       1  UNL1        0.0000
     47 C          -5.5109   15.7895    3.1288 C.ar    1  UNL1        0.0000
     48 H          -6.2010   15.0947    2.6711 H       1  UNL1        0.0000
     49 C          -5.9382   17.0580    3.4806 C.ar    1  UNL1        0.0000
     50 H          -6.9595   17.3595    3.2972 H       1  UNL1        0.0000
     51 C          -5.0469   17.9390    4.0699 C.ar    1  UNL1        0.0000
     52 H          -5.3719   18.9323    4.3457 H       1  UNL1        0.0000
     53 C          -3.7426   17.5460    4.3061 C.ar    1  UNL1        0.0000
     54 H          -3.0545   18.2396    4.7664 H       1  UNL1        0.0000
@<TRIPOS>BOND
     1    22    21    1
     2    23    21    1
     3    21    24    1
     4    21     1    1
     5    19    17    1
     6    29    28    1
     7    31    30    1
     8    28    30   ar
     9    28    26   ar
    10    30    32   ar
    11    27    26    1
    12    26    25   ar
    13    32    33    1
    14    32    34   ar
    15    25    34   ar
    16    25     1    1
    17    34    35    1
    18    17    18    1
    19    17     1    1
    20    17    20    1
    21     1     3    1
    22    39    36    1
    23     8     7    1
    24     3     7    1
    25     3     4    1
    26    48    47    1
    27     7     6    1
    28    46    45    1
    29    36    38    1
    30    36    37    1
    31    36     2    1
    32    47    45   ar
    33    47    49   ar
    34    50    49    1
    35    10     9    1
    36    45    44   ar
    37    49    51   ar
    38     4     9   ar
    39     4     5   ar
    40     6     2    1
    41     6     5    1
    42     9    11   ar
    43    44     2    1
    44    44    53   ar
    45    51    53   ar
    46    51    52    1
    47     2    40    1
    48    53    54    1
    49     5    15   ar
    50    11    12    1
    51    11    13   ar
    52    15    13   ar
    53    15    16    1
    54    13    14    1
    55    40    41    1
    56    40    42    1
    57    40    43    1
