@<TRIPOS>MOLECULE
3,4,5,7,8
 40 41 0 0 0
SMALL
GASTEIGER

@<TRIPOS>ATOM
      1 SI          6.7291   -2.9341   -3.4672 Si      1  UNL1        0.0000
      2 SI         11.7416   -5.3040   -1.9906 Si      1  UNL1        0.0000
      3 C           7.7885   -5.6326   -3.2705 C.ar    1  UNL1        0.0000
      4 C           8.0525   -4.2590   -3.6327 C.3     1  UNL1        0.0000
      5 C           9.4090   -4.0287   -3.2626 C.3     1  UNL1        0.0000
      6 H           9.8918   -3.0577   -3.2651 H       1  UNL1        0.0000
      7 C          10.0177   -5.1979   -2.7486 C.3     1  UNL1        0.0000
      8 C           8.9920   -6.2032   -2.7193 C.ar    1  UNL1        0.0000
      9 C           8.9687   -7.5045   -2.1880 C.ar    1  UNL1        0.0000
     10 H           9.8680   -7.9359   -1.7723 H       1  UNL1        0.0000
     11 C           7.7816   -8.1945   -2.1654 C.ar    1  UNL1        0.0000
     12 H           7.7438   -9.1847   -1.7370 H       1  UNL1        0.0000
     13 C           6.6011   -7.6268   -2.6698 C.ar    1  UNL1        0.0000
     14 H           5.6804   -8.1869   -2.5985 H       1  UNL1        0.0000
     15 C           6.5951   -6.3707   -3.2261 C.ar    1  UNL1        0.0000
     16 H           5.6742   -5.9243   -3.5689 H       1  UNL1        0.0000
     17 C           5.2189   -3.0924   -4.6346 C.3     1  UNL1        0.0000
     18 H           4.7498   -4.0689   -4.5663 H       1  UNL1        0.0000
     19 H           5.4495   -2.9080   -5.6784 H       1  UNL1        0.0000
     20 H           4.4709   -2.3613   -4.3429 H       1  UNL1        0.0000
     21 C           7.4915   -1.1929   -3.6374 C.3     1  UNL1        0.0000
     22 H           6.7147   -0.4403   -3.5489 H       1  UNL1        0.0000
     23 H           7.9908   -1.0342   -4.5862 H       1  UNL1        0.0000
     24 H           8.2119   -1.0046   -2.8479 H       1  UNL1        0.0000
     25 C           6.0475   -3.0966   -1.6842 C.3     1  UNL1        0.0000
     26 H           5.6012   -4.0722   -1.5171 H       1  UNL1        0.0000
     27 H           5.2895   -2.3474   -1.4773 H       1  UNL1        0.0000
     28 H           6.8389   -2.9758   -0.9505 H       1  UNL1        0.0000
     29 C          12.5543   -3.5782   -2.1219 C.3     1  UNL1        0.0000
     30 H          11.9812   -2.8222   -1.5932 H       1  UNL1        0.0000
     31 H          12.6605   -3.2654   -3.1554 H       1  UNL1        0.0000
     32 H          13.5455   -3.5986   -1.6813 H       1  UNL1        0.0000
     33 C          11.4976   -5.6880   -0.1287 C.3     1  UNL1        0.0000
     34 H          11.0742   -6.6729    0.0355 H       1  UNL1        0.0000
     35 H          10.8383   -4.9674    0.3443 H       1  UNL1        0.0000
     36 H          12.4495   -5.6511    0.3896 H       1  UNL1        0.0000
     37 C          12.8623   -6.6505   -2.7449 C.3     1  UNL1        0.0000
     38 H          12.4137   -7.6371   -2.6706 H       1  UNL1        0.0000
     39 H          13.8179   -6.6829   -2.2297 H       1  UNL1        0.0000
     40 H          13.0584   -6.4611   -3.7968 H       1  UNL1        0.0000
@<TRIPOS>BOND
     1    19    17    1
     2    17    18    1
     3    17    20    1
     4    17     1    1
     5    23    21    1
     6    40    37    1
     7    21    22    1
     8    21     1    1
     9    21    24    1
    10     4     1    1
    11     4     3    1
    12     4     5    1
    13    16    15    1
    14     1    25    1
    15     3    15   ar
    16     3     8   ar
    17     6     5    1
    18     5     7    1
    19    15    13   ar
    20    31    29    1
    21     7     8    1
    22     7     2    1
    23    37    38    1
    24    37    39    1
    25    37     2    1
    26     8     9   ar
    27    13    14    1
    28    13    11   ar
    29     9    11   ar
    30     9    10    1
    31    11    12    1
    32    29     2    1
    33    29    32    1
    34    29    30    1
    35     2    33    1
    36    25    26    1
    37    25    27    1
    38    25    28    1
    39    33    34    1
    40    33    35    1
    41    33    36    1
