@<TRIPOS>MOLECULE
1,2,3,4,5
 10 10 0 0 0
SMALL
GASTEIGER

@<TRIPOS>ATOM
      1 C           4.2320   -0.2068    2.5544 C.2     1  UNL1       -0.0763
      2 C           3.6397   -0.1818    1.2775 C.2     1  UNL1       -0.0654
      3 C           3.5579    1.1758    0.8484 C.2     1  UNL1       -0.0654
      4 C           4.1187    1.9818    1.8807 C.2     1  UNL1       -0.0763
      5 C           4.5185    1.1239    2.9333 C.3     1  UNL1        0.0054
      6 H           4.5202   -1.0956    3.0974 H       1  UNL1        0.0578
      7 H           3.4277   -1.0429    0.6604 H       1  UNL1        0.0615
      8 H           3.3243    1.5053   -0.1582 H       1  UNL1        0.0615
      9 H           4.3403    3.0380    1.8049 H       1  UNL1        0.0578
     10 H           5.1095    1.4187    3.7908 H       1  UNL1        0.0394
@<TRIPOS>BOND
     1     8     3    1
     2     7     2    1
     3     3     2    1
     4     3     4    2
     5     2     1    2
     6     9     4    1
     7     4     5    1
     8     1     5    1
     9     1     6    1
    10     5    10    1
