@<TRIPOS>MOLECULE
1,3,5,7,9
 10 10 0 0 0
SMALL
GASTEIGER

@<TRIPOS>ATOM
      1 C           8.1060    1.1605    1.5751 C.2     1  UNL1       -0.0837
      2 H           9.1344    1.4079    1.3503 H       1  UNL1        0.0572
      3 C           7.1874    0.5546    0.6944 C.2     1  UNL1       -0.0837
      4 H           7.3880    0.2572   -0.3269 H       1  UNL1        0.0572
      5 C           6.0058    0.2494    1.4247 C.3     1  UNL1       -0.0127
      6 H           5.1967   -0.3777    1.0708 H       1  UNL1        0.0352
      7 C           6.2184    0.6341    2.7757 C.3     1  UNL1       -0.0235
      8 H           5.5827    0.3820    3.6152 H       1  UNL1        0.0315
      9 C           7.4989    1.2331    2.8591 C.3     1  UNL1       -0.0127
     10 H           8.0073    1.4961    3.7772 H       1  UNL1        0.0352
@<TRIPOS>BOND
     1     4     3    1
     2     3     5    1
     3     3     1    2
     4     6     5    1
     5     2     1    1
     6     5     7    1
     7     1     9    1
     8     7     9    1
     9     7     8    1
    10     9    10    1
