@<TRIPOS>MOLECULE
1,2,3,4,5
 25 25 0 0 0
SMALL
GASTEIGER

@<TRIPOS>ATOM
      1 C          16.7191    2.4523    5.5374 C.2     1  UNL1       -0.0477
      2 C          16.6233    3.6079    4.7412 C.2     1  UNL1       -0.0584
      3 C          17.8896    3.7901    4.0839 C.3     1  UNL1        0.0231
      4 C          18.8061    2.8213    4.6269 C.2     1  UNL1       -0.0584
      5 C          18.0726    1.9687    5.4739 C.2     1  UNL1       -0.0477
      6 C          15.6790    1.9576    6.5015 C.3     1  UNL1       -0.0395
      7 H          15.7028    2.5623    7.4116 H       1  UNL1        0.0278
      8 H          15.8711    0.9233    6.7740 H       1  UNL1        0.0278
      9 H          14.6811    2.0216    6.0724 H       1  UNL1        0.0278
     10 C          15.4396    4.5195    4.5981 C.3     1  UNL1       -0.0424
     11 H          15.7514    5.5604    4.6825 H       1  UNL1        0.0275
     12 H          14.7029    4.3128    5.3705 H       1  UNL1        0.0275
     13 H          14.9694    4.3749    3.6230 H       1  UNL1        0.0275
     14 C          18.2905    5.0147    3.3030 C.3     1  UNL1       -0.0510
     15 H          17.4481    5.3899    2.7231 H       1  UNL1        0.0242
     16 H          19.1029    4.7799    2.6166 H       1  UNL1        0.0242
     17 H          18.6259    5.8025    3.9821 H       1  UNL1        0.0242
     18 C          20.2808    2.8231    4.3496 C.3     1  UNL1       -0.0424
     19 H          20.7883    2.0524    4.9233 H       1  UNL1        0.0275
     20 H          20.7078    3.7911    4.6157 H       1  UNL1        0.0275
     21 H          20.4700    2.6421    3.2906 H       1  UNL1        0.0275
     22 C          18.5906    0.8462    6.3252 C.3     1  UNL1       -0.0395
     23 H          18.1004   -0.0950    6.0680 H       1  UNL1        0.0278
     24 H          18.3992    1.0557    7.3787 H       1  UNL1        0.0278
     25 H          19.6608    0.7118    6.1924 H       1  UNL1        0.0278
@<TRIPOS>BOND
     1    16    14    1
     2    15    14    1
     3    21    18    1
     4    14    17    1
     5    14     3    1
     6    13    10    1
     7     3     4    1
     8     3     2    1
     9    18    20    1
    10    18     4    1
    11    18    19    1
    12    10    11    1
    13    10     2    1
    14    10    12    1
    15     4     5    2
    16     2     1    2
    17     5     1    1
    18     5    22    1
    19     1     6    1
    20    23    22    1
    21     9     6    1
    22    25    22    1
    23    22    24    1
    24     6     8    1
    25     6     7    1
