@<TRIPOS>MOLECULE
2,7,8,9,10
 34 34 0 0 0
SMALL
GASTEIGER

@<TRIPOS>ATOM
      1 SI          2.6871    6.0227    3.3690 Si      1  UNL1        0.0000
      2 C           3.0142    1.9277    2.8042 C.2     1  UNL1        0.0000
      3 C           2.0374    3.5609    1.0566 C.3     1  UNL1        0.0000
      4 H           2.8309    4.0581    0.4932 H       1  UNL1        0.0000
      5 H           1.1902    4.2382    1.1120 H       1  UNL1        0.0000
      6 H           1.7440    2.6678    0.5115 H       1  UNL1        0.0000
      7 C           2.5430    3.2125    2.4219 C.3     1  UNL1        0.0000
      8 C           3.6367    3.4270    4.4240 C.3     1  UNL1        0.0000
      9 C           3.7104    2.0650    4.0282 C.2     1  UNL1        0.0000
     10 C           2.9269    4.1516    3.4205 C.3     1  UNL1        0.0000
     11 C           4.3929    6.8419    3.0442 C.3     1  UNL1        0.0000
     12 H           5.0545    6.7663    3.8999 H       1  UNL1        0.0000
     13 H           4.2659    7.8968    2.8260 H       1  UNL1        0.0000
     14 H           4.8994    6.3903    2.1972 H       1  UNL1        0.0000
     15 C           4.6296    1.0037    4.5614 C.3     1  UNL1        0.0000
     16 H           5.1447    1.3323    5.4601 H       1  UNL1        0.0000
     17 H           5.3922    0.7826    3.8103 H       1  UNL1        0.0000
     18 H           4.0945    0.0797    4.7763 H       1  UNL1        0.0000
     19 C           1.5215    6.6947    2.0065 C.3     1  UNL1        0.0000
     20 H           1.8949    6.5122    1.0047 H       1  UNL1        0.0000
     21 H           1.4149    7.7699    2.1205 H       1  UNL1        0.0000
     22 H           0.5318    6.2587    2.0921 H       1  UNL1        0.0000
     23 C           3.0579    0.7199    1.9118 C.3     1  UNL1        0.0000
     24 H           2.0861    0.5113    1.4683 H       1  UNL1        0.0000
     25 H           3.3857   -0.1593    2.4604 H       1  UNL1        0.0000
     26 H           3.7662    0.8931    1.0971 H       1  UNL1        0.0000
     27 C           4.5045    4.0884    5.4554 C.3     1  UNL1        0.0000
     28 H           4.9304    3.3690    6.1491 H       1  UNL1        0.0000
     29 H           3.9594    4.8437    6.0173 H       1  UNL1        0.0000
     30 H           5.3341    4.5892    4.9509 H       1  UNL1        0.0000
     31 C           1.9732    6.7125    5.0079 C.3     1  UNL1        0.0000
     32 H           1.1363    6.0952    5.3231 H       1  UNL1        0.0000
     33 H           1.6081    7.7261    4.8711 H       1  UNL1        0.0000
     34 H           2.7029    6.7419    5.8109 H       1  UNL1        0.0000
@<TRIPOS>BOND
     1     4     3    1
     2     6     3    1
     3    20    19    1
     4     3     5    1
     5     3     7    1
     6    26    23    1
     7    24    23    1
     8    23    25    1
     9    23     2    1
    10    19    22    1
    11    19    21    1
    12    19     1    1
    13    14    11    1
    14     7     2    1
    15     7    10    1
    16     2     9    2
    17    13    11    1
    18    11     1    1
    19    11    12    1
    20     1    10    1
    21     1    31    1
    22    10     8    1
    23    17    15    1
    24     9     8    1
    25     9    15    1
    26     8    27    1
    27    15    18    1
    28    15    16    1
    29    33    31    1
    30    30    27    1
    31    31    32    1
    32    31    34    1
    33    27    29    1
    34    27    28    1
