@<TRIPOS>MOLECULE
2,7,8,9,10
 34 34 0 0 0
SMALL
GASTEIGER

@<TRIPOS>ATOM
      1 SI         -2.7609    6.1815    2.2102 Si      1  UNL1        0.0000
      2 C          -3.8348    6.5880    6.1775 C.2     1  UNL1        0.0000
      3 C          -1.1360    8.4168    4.3396 C.3     1  UNL1        0.0000
      4 H          -0.3620    7.8899    3.7841 H       1  UNL1        0.0000
      5 H          -0.6719    8.9556    5.1639 H       1  UNL1        0.0000
      6 H          -1.5888    9.1501    3.6687 H       1  UNL1        0.0000
      7 C          -3.9529    6.0062    4.8912 C.3     1  UNL1        0.0000
      8 C          -2.1877    7.4711    4.8406 C.3     1  UNL1        0.0000
      9 C          -2.9494    6.5730    4.0418 C.3     1  UNL1        0.0000
     10 C          -2.7105    7.4599    6.1579 C.2     1  UNL1        0.0000
     11 C          -2.3251    8.4206    7.2503 C.3     1  UNL1        0.0000
     12 H          -2.5693    9.4431    6.9499 H       1  UNL1        0.0000
     13 H          -1.2560    8.3809    7.4655 H       1  UNL1        0.0000
     14 H          -2.8700    8.2071    8.1677 H       1  UNL1        0.0000
     15 C          -4.9031    6.5937    7.2340 C.3     1  UNL1        0.0000
     16 H          -4.4926    6.6086    8.2419 H       1  UNL1        0.0000
     17 H          -5.5654    5.7370    7.1398 H       1  UNL1        0.0000
     18 H          -5.5119    7.4950    7.1149 H       1  UNL1        0.0000
     19 C          -4.3196    6.8032    1.2794 C.3     1  UNL1        0.0000
     20 H          -4.4771    7.8655    1.4363 H       1  UNL1        0.0000
     21 H          -5.2215    6.2897    1.5933 H       1  UNL1        0.0000
     22 H          -4.2082    6.6436    0.2122 H       1  UNL1        0.0000
     23 C          -5.1132    5.1832    4.4098 C.3     1  UNL1        0.0000
     24 H          -5.5512    4.5941    5.2144 H       1  UNL1        0.0000
     25 H          -4.8106    4.5105    3.6102 H       1  UNL1        0.0000
     26 H          -5.8964    5.8401    4.0223 H       1  UNL1        0.0000
     27 C          -1.2892    7.0191    1.3162 C.3     1  UNL1        0.0000
     28 H          -0.3371    6.7732    1.7719 H       1  UNL1        0.0000
     29 H          -1.3867    8.0996    1.3067 H       1  UNL1        0.0000
     30 H          -1.2559    6.6886    0.2817 H       1  UNL1        0.0000
     31 C          -2.6138    4.2827    1.9390 C.3     1  UNL1        0.0000
     32 H          -1.9401    4.0506    1.1194 H       1  UNL1        0.0000
     33 H          -3.5723    3.8320    1.6965 H       1  UNL1        0.0000
     34 H          -2.2271    3.7990    2.8358 H       1  UNL1        0.0000
@<TRIPOS>BOND
     1    22    19    1
     2    30    27    1
     3    32    31    1
     4    19    20    1
     5    19    21    1
     6    19     1    1
     7    29    27    1
     8    27    28    1
     9    27     1    1
    10    33    31    1
    11    31     1    1
    12    31    34    1
    13     1     9    1
    14    25    23    1
    15     6     3    1
    16     4     3    1
    17    26    23    1
    18     9     8    1
    19     9     7    1
    20     3     8    1
    21     3     5    1
    22    23     7    1
    23    23    24    1
    24     8    10    1
    25     7     2    1
    26    10     2    2
    27    10    11    1
    28     2    15    1
    29    12    11    1
    30    18    15    1
    31    17    15    1
    32    15    16    1
    33    11    13    1
    34    11    14    1
