@<TRIPOS>MOLECULE
1,2,3,4,5
 10 10 0 0 0
SMALL
GASTEIGER

@<TRIPOS>ATOM
      1 C           2.1342   11.3143    6.7864 C.2     1  UNL1       -0.0763
      2 C           0.8543   10.7175    6.8889 C.3     1  UNL1        0.0054
      3 C           0.6535    9.9140    5.7380 C.2     1  UNL1       -0.0763
      4 C           1.7717   10.0690    4.9014 C.2     1  UNL1       -0.0654
      5 C           2.6802   10.9583    5.5452 C.2     1  UNL1       -0.0654
      6 H           2.6340   11.8739    7.5549 H       1  UNL1        0.0578
      7 H           0.2214   10.7311    7.7607 H       1  UNL1        0.0394
      8 H          -0.1727    9.2402    5.5823 H       1  UNL1        0.0578
      9 H           1.9710    9.5243    3.9914 H       1  UNL1        0.0615
     10 H           3.6807   11.1758    5.2104 H       1  UNL1        0.0615
@<TRIPOS>BOND
     1     9     4    1
     2     4     5    1
     3     4     3    2
     4    10     5    1
     5     5     1    2
     6     8     3    1
     7     3     2    1
     8     1     2    1
     9     1     6    1
    10     2     7    1
