@<TRIPOS>MOLECULE
1,2,3,16,17
 106 113 0 0 0
SMALL
GASTEIGER

@<TRIPOS>ATOM
      1 C           5.3731    1.8303    0.0138 C.2     1  UNL1        0.0000
      2 C           5.6702    2.3698   -1.2748 C.2     1  UNL1        0.0000
      3 C           6.3913    3.5884   -1.0402 C.2     1  UNL1        0.0000
      4 C           6.7700    4.6450   -2.0295 C.3     1  UNL1        0.0000
      5 H           5.8697    5.2015   -2.3149 H       1  UNL1        0.0000
      6 H           7.1795    4.2015   -2.9385 H       1  UNL1        0.0000
      7 C           7.7830    5.5923   -1.3878 C.3     1  UNL1        0.0000
      8 H           8.7195    5.0545   -1.2237 H       1  UNL1        0.0000
      9 H           7.9805    6.4313   -2.0571 H       1  UNL1        0.0000
     10 C           7.2523    6.0992   -0.0481 C.3     1  UNL1        0.0000
     11 H           6.2542    6.5188   -0.1986 H       1  UNL1        0.0000
     12 H           7.8937    6.8944    0.3349 H       1  UNL1        0.0000
     13 C           7.1827    4.9637    0.9764 C.3     1  UNL1        0.0000
     14 H           8.1818    4.7449    1.3579 H       1  UNL1        0.0000
     15 H           6.5688    5.2629    1.8297 H       1  UNL1        0.0000
     16 C           6.5994    3.7327    0.3474 C.3     1  UNL1        0.0000
     17 C           5.9835    2.6191    1.0217 C.2     1  UNL1        0.0000
     18 O           4.6255    0.7297    0.2286 O.2     1  UNL1        0.0000
     19 SI          3.0738    0.3995    0.5888 Si      1  UNL1        0.0000
     20 C           1.8502    1.0407   -0.7205 C.3     1  UNL1        0.0000
     21 H           0.8518    0.6568   -0.5352 H       1  UNL1        0.0000
     22 H           2.1369    0.7331   -1.7207 H       1  UNL1        0.0000
     23 H           1.7838    2.1252   -0.7167 H       1  UNL1        0.0000
     24 C           3.0785   -1.4844    0.7404 C.3     1  UNL1        0.0000
     25 H           3.7522   -1.8091    1.5269 H       1  UNL1        0.0000
     26 H           3.3933   -1.9558   -0.1839 H       1  UNL1        0.0000
     27 H           2.0875   -1.8533    0.9806 H       1  UNL1        0.0000
     28 O           2.6736    1.1018    2.0078 O.3     1  UNL1        0.0000
     29 SI          1.4792    1.2291    3.1233 Si      1  UNL1        0.0000
     30 H           2.1264    1.9324    4.2304 H       1  UNL1        0.0000
     31 C           0.0387    2.2411    2.4048 C.3     1  UNL1        0.0000
     32 H           0.3892    3.1993    2.0342 H       1  UNL1        0.0000
     33 H          -0.7176    2.4387    3.1579 H       1  UNL1        0.0000
     34 H          -0.4466    1.7278    1.5790 H       1  UNL1        0.0000
     35 C           0.8867   -0.5057    3.6217 C.3     1  UNL1        0.0000
     36 H           0.3290   -0.9852    2.8213 H       1  UNL1        0.0000
     37 H           0.2417   -0.4734    4.4941 H       1  UNL1        0.0000
     38 H           1.7333   -1.1435    3.8570 H       1  UNL1        0.0000
     39 SI          5.0168    1.7959   -2.9360 Si      1  UNL1        0.0000
     40 C           4.5255   -0.0313   -2.9158 C.ar    1  UNL1        0.0000
     41 C           3.4427   -0.5200   -3.6402 C.ar    1  UNL1        0.0000
     42 H           2.8206    0.1671   -4.1964 H       1  UNL1        0.0000
     43 C           3.1456   -1.8709   -3.6569 C.ar    1  UNL1        0.0000
     44 H           2.2989   -2.2302   -4.2243 H       1  UNL1        0.0000
     45 C           3.9352   -2.7630   -2.9513 C.ar    1  UNL1        0.0000
     46 H           3.7079   -3.8191   -2.9676 H       1  UNL1        0.0000
     47 C           5.0143   -2.2930   -2.2210 C.ar    1  UNL1        0.0000
     48 H           5.6337   -2.9808   -1.6638 H       1  UNL1        0.0000
     49 C           5.3006   -0.9408   -2.2049 C.ar    1  UNL1        0.0000
     50 H           6.1307   -0.5765   -1.6189 H       1  UNL1        0.0000
     51 C           6.4261    1.9798   -4.1984 C.ar    1  UNL1        0.0000
     52 C           6.4239    2.9600   -5.1866 C.ar    1  UNL1        0.0000
     53 H           5.5855    3.6388   -5.2570 H       1  UNL1        0.0000
     54 C           7.4796    3.0842   -6.0719 C.ar    1  UNL1        0.0000
     55 H           7.4602    3.8548   -6.8295 H       1  UNL1        0.0000
     56 C           8.5619    2.2250   -5.9845 C.ar    1  UNL1        0.0000
     57 H           9.3887    2.3226   -6.6727 H       1  UNL1        0.0000
     58 C           8.5804    1.2423   -5.0092 C.ar    1  UNL1        0.0000
     59 H           9.4229    0.5712   -4.9321 H       1  UNL1        0.0000
     60 C           7.5223    1.1244   -4.1273 C.ar    1  UNL1        0.0000
     61 H           7.5456    0.3576   -3.3665 H       1  UNL1        0.0000
     62 C           3.5715    2.9328   -3.4015 C.ar    1  UNL1        0.0000
     63 C           3.0491    3.8458   -2.4899 C.ar    1  UNL1        0.0000
     64 H           3.4799    3.9088   -1.5003 H       1  UNL1        0.0000
     65 C           1.9934    4.6728   -2.8283 C.ar    1  UNL1        0.0000
     66 H           1.6022    5.3746   -2.1052 H       1  UNL1        0.0000
     67 C           1.4373    4.6026   -4.0944 C.ar    1  UNL1        0.0000
     68 H           0.6116    5.2458   -4.3616 H       1  UNL1        0.0000
     69 C           1.9480    3.7060   -5.0180 C.ar    1  UNL1        0.0000
     70 H           1.5219    3.6504   -6.0095 H       1  UNL1        0.0000
     71 C           3.0047    2.8831   -4.6720 C.ar    1  UNL1        0.0000
     72 H           3.4049    2.1940   -5.4022 H       1  UNL1        0.0000
     73 SI          5.8547    2.3895    2.8829 Si      1  UNL1        0.0000
     74 C           7.4916    2.9524    3.6735 C.ar    1  UNL1        0.0000
     75 C           8.6235    2.1492    3.5631 C.ar    1  UNL1        0.0000
     76 H           8.5515    1.2032    3.0490 H       1  UNL1        0.0000
     77 C           9.8371    2.5473    4.0925 C.ar    1  UNL1        0.0000
     78 H          10.7043    1.9113    3.9895 H       1  UNL1        0.0000
     79 C           9.9421    3.7603    4.7522 C.ar    1  UNL1        0.0000
     80 H          10.8894    4.0742    5.1665 H       1  UNL1        0.0000
     81 C           8.8254    4.5689    4.8790 C.ar    1  UNL1        0.0000
     82 H           8.8992    5.5163    5.3941 H       1  UNL1        0.0000
     83 C           7.6154    4.1663    4.3430 C.ar    1  UNL1        0.0000
     84 H           6.7507    4.8068    4.4455 H       1  UNL1        0.0000
     85 C           4.4666    3.5315    3.4829 C.ar    1  UNL1        0.0000
     86 C           3.6239    4.1791    2.5855 C.ar    1  UNL1        0.0000
     87 H           3.7594    4.0199    1.5254 H       1  UNL1        0.0000
     88 C           2.6172    5.0177    3.0278 C.ar    1  UNL1        0.0000
     89 H           1.9757    5.5177    2.3155 H       1  UNL1        0.0000
     90 C           2.4330    5.2246    4.3841 C.ar    1  UNL1        0.0000
     91 H           1.6476    5.8794    4.7325 H       1  UNL1        0.0000
     92 C           3.2639    4.5907    5.2926 C.ar    1  UNL1        0.0000
     93 H           3.1272    4.7507    6.3527 H       1  UNL1        0.0000
     94 C           4.2698    3.7549    4.8423 C.ar    1  UNL1        0.0000
     95 H           4.9202    3.2691    5.5559 H       1  UNL1        0.0000
     96 C           5.6120    0.5612    3.3013 C.ar    1  UNL1        0.0000
     97 C           4.8148    0.1354    4.3573 C.ar    1  UNL1        0.0000
     98 H           4.2925    0.8654    4.9563 H       1  UNL1        0.0000
     99 C           4.6741   -1.2100    4.6465 C.ar    1  UNL1        0.0000
    100 H           4.0484   -1.5222    5.4710 H       1  UNL1        0.0000
    101 C           5.3371   -2.1571    3.8844 C.ar    1  UNL1        0.0000
    102 H           5.2279   -3.2088    4.1087 H       1  UNL1        0.0000
    103 C           6.1405   -1.7489    2.8320 C.ar    1  UNL1        0.0000
    104 H           6.6625   -2.4807    2.2321 H       1  UNL1        0.0000
    105 C           6.2742   -0.4028    2.5474 C.ar    1  UNL1        0.0000
    106 H           6.8982   -0.0881    1.7208 H       1  UNL1        0.0000
@<TRIPOS>BOND
     1    55    54    1
     2    57    56    1
     3    54    56   ar
     4    54    52   ar
     5    70    69    1
     6    56    58   ar
     7    72    71    1
     8    53    52    1
     9    52    51   ar
    10    69    71   ar
    11    69    67   ar
    12    58    59    1
    13    58    60   ar
    14    71    62   ar
    15    68    67    1
    16    44    43    1
    17    51    60   ar
    18    51    39    1
    19    42    41    1
    20    60    61    1
    21    67    65   ar
    22    43    41   ar
    23    43    45   ar
    24    41    40   ar
    25    62    39    1
    26    62    63   ar
    27    46    45    1
    28    45    47   ar
    29     6     4    1
    30    39    40    1
    31    39     2    1
    32    40    49   ar
    33    65    63   ar
    34    65    66    1
    35    63    64    1
    36     5     4    1
    37    47    49   ar
    38    47    48    1
    39    49    50    1
    40     9     7    1
    41     4     7    1
    42     4     3    1
    43    22    20    1
    44     7     8    1
    45     7    10    1
    46     2     3    2
    47     2     1    1
    48     3    16    1
    49    20    23    1
    50    20    21    1
    51    20    19    1
    52    11    10    1
    53    26    24    1
    54    10    12    1
    55    10    13    1
    56     1    18    1
    57     1    17    2
    58    18    19    1
    59    16    13    1
    60    16    17    1
    61    19    24    1
    62    19    28    1
    63    24    27    1
    64    24    25    1
    65    13    14    1
    66    13    15    1
    67    17    73    1
    68    87    86    1
    69    34    31    1
    70   106   105    1
    71    28    29    1
    72    32    31    1
    73   104   103    1
    74    89    88    1
    75    31    29    1
    76    31    33    1
    77   105   103   ar
    78   105    96   ar
    79    86    88   ar
    80    86    85   ar
    81    36    35    1
    82   103   101   ar
    83    73    96    1
    84    73    85    1
    85    73    74    1
    86    88    90   ar
    87    76    75    1
    88    29    35    1
    89    29    30    1
    90    96    97   ar
    91    85    94   ar
    92    75    74   ar
    93    75    77   ar
    94    35    38    1
    95    35    37    1
    96    74    83   ar
    97   101   102    1
    98   101    99   ar
    99    78    77    1
   100    77    79   ar
   101    83    84    1
   102    83    81   ar
   103    97    99   ar
   104    97    98    1
   105    90    91    1
   106    90    92   ar
   107    99   100    1
   108    79    81   ar
   109    79    80    1
   110    94    92   ar
   111    94    95    1
   112    81    82    1
   113    92    93    1
