@<TRIPOS>MOLECULE
1,3,5,7,9
 10 10 0 0 0
SMALL
GASTEIGER

@<TRIPOS>ATOM
      1 C           8.2966    3.0694    6.6006 C.2     1  UNL1       -0.0837
      2 H           8.6199    3.9989    7.0499 H       1  UNL1        0.0572
      3 C           7.8910    0.8602    6.2628 C.3     1  UNL1       -0.0235
      4 H           7.9565   -0.2114    6.3818 H       1  UNL1        0.0315
      5 C           7.9056    2.8924    5.2616 C.2     1  UNL1       -0.0837
      6 H           7.8618    3.6709    4.5101 H       1  UNL1        0.0572
      7 C           8.2988    1.8105    7.2184 C.3     1  UNL1       -0.0127
      8 H           8.6779    1.5855    8.2049 H       1  UNL1        0.0352
      9 C           7.6413    1.5338    5.0517 C.3     1  UNL1       -0.0127
     10 H           7.4250    1.0636    4.1006 H       1  UNL1        0.0352
@<TRIPOS>BOND
     1    10     9    1
     2     6     5    1
     3     9     5    1
     4     9     3    1
     5     5     1    2
     6     3     4    1
     7     3     7    1
     8     1     2    1
     9     1     7    1
    10     7     8    1
