@<TRIPOS>MOLECULE
1,3,5,7,9
 10 10 0 0 0
SMALL
GASTEIGER

@<TRIPOS>ATOM
      1 C           6.2023    1.6841    4.7283 C.2     1  UNL1       -0.0763
      2 H           7.0293    1.4359    4.0753 H       1  UNL1        0.0578
      3 C           4.8669    1.9196    4.3181 C.2     1  UNL1       -0.0654
      4 H           4.5075    1.9039    3.2964 H       1  UNL1        0.0615
      5 C           4.0588    1.9906    5.4714 C.2     1  UNL1       -0.0654
      6 H           2.9799    2.0887    5.4908 H       1  UNL1        0.0615
      7 C           4.8873    1.7851    6.5989 C.2     1  UNL1       -0.0763
      8 H           4.5516    1.7103    7.6273 H       1  UNL1        0.0578
      9 C           6.2090    1.5910    6.1418 C.3     1  UNL1        0.0054
     10 H           7.0536    1.3081    6.7580 H       1  UNL1        0.0394
@<TRIPOS>BOND
     1     4     3    1
     2     2     1    1
     3     3     1    2
     4     3     5    1
     5     1     9    1
     6     5     6    1
     7     5     7    2
     8     9     7    1
     9     9    10    1
    10     7     8    1
