@<TRIPOS>MOLECULE
1,2,4,6,8
 39 41 0 0 0
SMALL
GASTEIGER

@<TRIPOS>ATOM
      1 C           6.9806    5.2953    4.1651 C.3     1  UNL1        0.0000
      2 C           6.1397    6.2241    4.8455 C.2     1  UNL1        0.0000
      3 H           6.4799    6.9933    5.5308 H       1  UNL1        0.0000
      4 C           4.8206    6.0539    4.3870 C.2     1  UNL1        0.0000
      5 H           3.9680    6.6618    4.6621 H       1  UNL1        0.0000
      6 C           4.8132    5.0067    3.4402 C.2     1  UNL1        0.0000
      7 H           3.9588    4.7064    2.8450 H       1  UNL1        0.0000
      8 C           6.1407    4.5514    3.2863 C.2     1  UNL1        0.0000
      9 H           6.4910    3.8567    2.5313 H       1  UNL1        0.0000
     10 SI          8.8608    5.1815    4.2216 Si      1  UNL1        0.0000
     11 C           9.2387    3.3151    4.3064 C.ar    1  UNL1        0.0000
     12 C           9.3443    2.6561    5.5309 C.ar    1  UNL1        0.0000
     13 H           9.2400    3.2179    6.4478 H       1  UNL1        0.0000
     14 C           9.6080    1.3000    5.5936 C.ar    1  UNL1        0.0000
     15 H           9.7157    0.8157    6.5538 H       1  UNL1        0.0000
     16 C           9.7684    0.5491    4.4313 C.ar    1  UNL1        0.0000
     17 C           9.6747    1.2023    3.2043 C.ar    1  UNL1        0.0000
     18 H           9.7893    0.6360    2.2908 H       1  UNL1        0.0000
     19 C           9.4167    2.5584    3.1488 C.ar    1  UNL1        0.0000
     20 H           9.3569    3.0423    2.1848 H       1  UNL1        0.0000
     21 C          10.0258   -0.8964    4.4969 C.ar    1  UNL1        0.0000
     22 C           9.3109   -1.7008    5.3811 C.ar    1  UNL1        0.0000
     23 H           8.5509   -1.2581    6.0085 H       1  UNL1        0.0000
     24 C           9.5467   -3.0617    5.4391 C.ar    1  UNL1        0.0000
     25 H           8.9809   -3.6758    6.1245 H       1  UNL1        0.0000
     26 C          10.5035   -3.6384    4.6205 C.ar    1  UNL1        0.0000
     27 H          10.6890   -4.7012    4.6686 H       1  UNL1        0.0000
     28 C          11.2211   -2.8467    3.7394 C.ar    1  UNL1        0.0000
     29 H          11.9711   -3.2912    3.1013 H       1  UNL1        0.0000
     30 C          10.9822   -1.4866    3.6744 C.ar    1  UNL1        0.0000
     31 H          11.5550   -0.8698    2.9970 H       1  UNL1        0.0000
     32 C           9.6029    6.1433    5.6865 C.3     1  UNL1        0.0000
     33 H          10.6621    5.9315    5.7921 H       1  UNL1        0.0000
     34 H           9.1146    5.8843    6.6202 H       1  UNL1        0.0000
     35 H           9.4966    7.2138    5.5396 H       1  UNL1        0.0000
     36 C           9.5564    5.8879    2.5859 C.3     1  UNL1        0.0000
     37 H          10.6077    5.6447    2.4754 H       1  UNL1        0.0000
     38 H           9.4648    6.9688    2.5629 H       1  UNL1        0.0000
     39 H           9.0319    5.5025    1.7177 H       1  UNL1        0.0000
@<TRIPOS>BOND
     1    39    36    1
     2    20    19    1
     3    18    17    1
     4    37    36    1
     5     9     8    1
     6    38    36    1
     7    36    10    1
     8     7     6    1
     9    31    30    1
    10    29    28    1
    11    19    17   ar
    12    19    11   ar
    13    17    16   ar
    14     8     6    2
    15     8     1    1
    16     6     4    1
    17    30    28   ar
    18    30    21   ar
    19    28    26   ar
    20     1    10    1
    21     1     2    1
    22    10    11    1
    23    10    32    1
    24    11    12   ar
    25     4     5    1
    26     4     2    2
    27    16    21    1
    28    16    14   ar
    29    21    22   ar
    30    26    27    1
    31    26    24   ar
    32     2     3    1
    33    22    24   ar
    34    22    23    1
    35    24    25    1
    36    12    14   ar
    37    12    13    1
    38    35    32    1
    39    14    15    1
    40    32    33    1
    41    32    34    1
