@<TRIPOS>MOLECULE
1,2,3,4,5
 25 25 0 0 0
SMALL
GASTEIGER

@<TRIPOS>ATOM
      1 C           6.0551    1.0707    4.1855 C.3     1  UNL1        0.0052
      2 C           6.9571    0.9750    5.2733 C.2     1  UNL1       -0.0658
      3 C           7.8991    2.0314    5.1558 C.2     1  UNL1       -0.0658
      4 C           7.5560    2.8194    4.0229 C.3     1  UNL1        0.0052
      5 C           6.4349    2.1990    3.3995 C.3     1  UNL1       -0.0053
      6 C           6.8784    0.0772    6.4723 C.3     1  UNL1       -0.0430
      7 H           6.0582   -0.6307    6.3889 H       1  UNL1        0.0275
      8 H           6.7198    0.6809    7.3690 H       1  UNL1        0.0275
      9 H           7.8056   -0.4820    6.6104 H       1  UNL1        0.0275
     10 C           8.9721    2.3414    6.1575 C.3     1  UNL1       -0.0430
     11 H           8.5509    2.8759    7.0134 H       1  UNL1        0.0275
     12 H           9.7492    2.9656    5.7174 H       1  UNL1        0.0275
     13 H           9.4319    1.4238    6.5269 H       1  UNL1        0.0275
     14 C           8.0086    4.2323    3.8081 C.3     1  UNL1       -0.0545
     15 H           7.4425    4.8885    4.4764 H       1  UNL1        0.0239
     16 H           7.8268    4.5576    2.7883 H       1  UNL1        0.0239
     17 H           9.0650    4.3555    4.0345 H       1  UNL1        0.0239
     18 C           5.5957    2.7665    2.2926 C.3     1  UNL1       -0.0574
     19 H           5.2181    1.9723    1.6476 H       1  UNL1        0.0236
     20 H           6.1647    3.4714    1.6906 H       1  UNL1        0.0236
     21 H           4.7359    3.2970    2.7116 H       1  UNL1        0.0236
     22 C           4.7661    0.3297    3.9828 C.3     1  UNL1       -0.0545
     23 H           4.5950   -0.3859    4.7823 H       1  UNL1        0.0239
     24 H           4.7540   -0.2052    3.0321 H       1  UNL1        0.0239
     25 H           3.9352    1.0390    3.9811 H       1  UNL1        0.0239
@<TRIPOS>BOND
     1    19    18    1
     2    20    18    1
     3    18    21    1
     4    18     5    1
     5    16    14    1
     6    24    22    1
     7     5     4    1
     8     5     1    1
     9    14     4    1
    10    14    17    1
    11    14    15    1
    12    25    22    1
    13    22     1    1
    14    22    23    1
    15     4     3    1
    16     1     2    1
    17     3     2    2
    18     3    10    1
    19     2     6    1
    20    12    10    1
    21    10    13    1
    22    10    11    1
    23     7     6    1
    24     6     9    1
    25     6     8    1
