@<TRIPOS>MOLECULE
1,2,3,4,5
 25 25 0 0 0
SMALL
GASTEIGER

@<TRIPOS>ATOM
      1 C          14.8761   -0.0766   11.7693 C.2     1  UNL1       -0.0584
      2 C          13.9815    0.9565   12.1769 C.3     1  UNL1        0.0231
      3 C          12.6675    0.5826   11.7891 C.2     1  UNL1       -0.0584
      4 C          12.7602   -0.6471   11.0806 C.2     1  UNL1       -0.0477
      5 C          14.1150   -1.0769   11.1073 C.2     1  UNL1       -0.0477
      6 C          16.2657   -0.2308   12.3134 C.3     1  UNL1       -0.0424
      7 H          16.2034   -0.5222   13.3660 H       1  UNL1        0.0275
      8 H          16.8253    0.7017   12.2538 H       1  UNL1        0.0275
      9 H          16.8162   -0.9992   11.7771 H       1  UNL1        0.0275
     10 C          14.3765    2.0140   13.1657 C.3     1  UNL1       -0.0510
     11 H          14.6829    1.5354   14.0996 H       1  UNL1        0.0242
     12 H          13.5523    2.6844   13.3913 H       1  UNL1        0.0242
     13 H          15.2249    2.5979   12.8056 H       1  UNL1        0.0242
     14 C          11.3960    1.1019   12.3939 C.3     1  UNL1       -0.0424
     15 H          10.5393    0.9494   11.7428 H       1  UNL1        0.0275
     16 H          11.4574    2.1550   12.6540 H       1  UNL1        0.0275
     17 H          11.2069    0.5485   13.3186 H       1  UNL1        0.0275
     18 C          11.6082   -1.4615   10.5687 C.3     1  UNL1       -0.0395
     19 H          11.3588   -2.2522   11.2807 H       1  UNL1        0.0278
     20 H          11.8619   -1.9290    9.6164 H       1  UNL1        0.0278
     21 H          10.7211   -0.8459   10.4239 H       1  UNL1        0.0278
     22 C          14.6070   -2.4403   10.7306 C.3     1  UNL1       -0.0395
     23 H          15.6061   -2.3900   10.3011 H       1  UNL1        0.0278
     24 H          13.9455   -2.9070   10.0044 H       1  UNL1        0.0278
     25 H          14.6410   -3.0716   11.6227 H       1  UNL1        0.0278
@<TRIPOS>BOND
     1    20    18    1
     2    24    22    1
     3    23    22    1
     4    21    18    1
     5    18     4    1
     6    18    19    1
     7    22     5    1
     8    22    25    1
     9     4     5    1
    10     4     3    2
    11     5     1    2
    12    15    14    1
    13     1     2    1
    14     1     6    1
    15     9     6    1
    16     3     2    1
    17     3    14    1
    18     2    10    1
    19     8     6    1
    20     6     7    1
    21    14    16    1
    22    14    17    1
    23    13    10    1
    24    10    12    1
    25    10    11    1
