@<TRIPOS>MOLECULE
1,2,3,4,5
 25 25 0 0 0
SMALL
GASTEIGER

@<TRIPOS>ATOM
      1 C           7.9922    4.9867    6.4987 C.2     1  UNL1       -0.0658
      2 C           8.8217    5.8468    5.7203 C.3     1  UNL1        0.0052
      3 C           7.9856    6.7886    5.0529 C.3     1  UNL1       -0.0053
      4 C           6.6402    6.4681    5.3827 C.3     1  UNL1        0.0052
      5 C           6.6452    5.3785    6.2923 C.2     1  UNL1       -0.0658
      6 C           8.5323    4.0337    7.5249 C.3     1  UNL1       -0.0430
      7 H           9.2420    4.5561    8.1703 H       1  UNL1        0.0275
      8 H           9.0517    3.1931    7.0607 H       1  UNL1        0.0275
      9 H           7.7351    3.6413    8.1510 H       1  UNL1        0.0275
     10 C          10.3155    5.9107    5.8469 C.3     1  UNL1       -0.0545
     11 H          10.7567    6.4539    5.0145 H       1  UNL1        0.0239
     12 H          10.7455    4.9097    5.8822 H       1  UNL1        0.0239
     13 H          10.5885    6.4284    6.7712 H       1  UNL1        0.0239
     14 C           8.4309    8.1056    4.4919 C.3     1  UNL1       -0.0574
     15 H           8.4268    8.8498    5.2941 H       1  UNL1        0.0236
     16 H           7.7656    8.4559    3.7062 H       1  UNL1        0.0236
     17 H           9.4402    8.0467    4.0959 H       1  UNL1        0.0236
     18 C           5.4183    7.2376    4.9756 C.3     1  UNL1       -0.0545
     19 H           4.5871    6.5623    4.7672 H       1  UNL1        0.0239
     20 H           5.6109    7.8354    4.0857 H       1  UNL1        0.0239
     21 H           5.1098    7.9126    5.7785 H       1  UNL1        0.0239
     22 C           5.4187    4.9158    7.0223 C.3     1  UNL1       -0.0430
     23 H           4.6435    4.5864    6.3278 H       1  UNL1        0.0275
     24 H           5.0085    5.7446    7.6047 H       1  UNL1        0.0275
     25 H           5.6419    4.0991    7.7037 H       1  UNL1        0.0275
@<TRIPOS>BOND
     1    16    14    1
     2    20    18    1
     3    17    14    1
     4    14     3    1
     5    14    15    1
     6    19    18    1
     7    18     4    1
     8    18    21    1
     9    11    10    1
    10     3     4    1
    11     3     2    1
    12     4     5    1
    13     2    10    1
    14     2     1    1
    15    10    12    1
    16    10    13    1
    17     5     1    2
    18     5    22    1
    19    23    22    1
    20     1     6    1
    21    22    24    1
    22    22    25    1
    23     8     6    1
    24     6     9    1
    25     6     7    1
