@<TRIPOS>MOLECULE
1,2,3,4,5
 25 25 0 0 0
SMALL
GASTEIGER

@<TRIPOS>ATOM
      1 C           0.7597    6.1558    4.1175 C.3     1  UNL1       -0.0053
      2 C           0.8896    7.5369    3.8109 C.3     1  UNL1        0.0052
      3 C           0.2019    8.2679    4.8089 C.2     1  UNL1       -0.0658
      4 C          -0.4409    7.3534    5.6778 C.2     1  UNL1       -0.0658
      5 C          -0.0717    6.0372    5.2787 C.3     1  UNL1        0.0052
      6 C           1.0427    5.0063    3.1942 C.3     1  UNL1       -0.0574
      7 H           0.1274    4.7360    2.6598 H       1  UNL1        0.0236
      8 H           1.3769    4.1319    3.7509 H       1  UNL1        0.0236
      9 H           1.7957    5.2579    2.4497 H       1  UNL1        0.0236
     10 C           1.2210    8.1388    2.4755 C.3     1  UNL1       -0.0545
     11 H           0.2831    8.4432    2.0025 H       1  UNL1        0.0239
     12 H           1.7057    7.4307    1.8103 H       1  UNL1        0.0239
     13 H           1.8407    9.0298    2.5583 H       1  UNL1        0.0239
     14 C          -0.0280    9.7484    4.8152 C.3     1  UNL1       -0.0430
     15 H           0.7280   10.2702    4.2320 H       1  UNL1        0.0275
     16 H          -0.0114   10.1353    5.8336 H       1  UNL1        0.0275
     17 H          -1.0069    9.9769    4.3854 H       1  UNL1        0.0275
     18 C          -1.5688    7.7393    6.5869 C.3     1  UNL1       -0.0430
     19 H          -2.3761    8.1574    5.9796 H       1  UNL1        0.0275
     20 H          -1.2692    8.5033    7.3039 H       1  UNL1        0.0275
     21 H          -1.9583    6.8794    7.1241 H       1  UNL1        0.0275
     22 C          -0.7958    4.7850    5.6782 C.3     1  UNL1       -0.0545
     23 H          -1.0023    4.7737    6.7463 H       1  UNL1        0.0239
     24 H          -0.2113    3.9021    5.4310 H       1  UNL1        0.0239
     25 H          -1.7466    4.7315    5.1396 H       1  UNL1        0.0239
@<TRIPOS>BOND
     1    12    10    1
     2    11    10    1
     3     9     6    1
     4    10    13    1
     5    10     2    1
     6     7     6    1
     7     6     8    1
     8     6     1    1
     9     2     1    1
    10     2     3    1
    11     1     5    1
    12    15    14    1
    13    17    14    1
    14     3    14    1
    15     3     4    2
    16    14    16    1
    17    25    22    1
    18     5     4    1
    19     5    22    1
    20    24    22    1
    21     4    18    1
    22    22    23    1
    23    19    18    1
    24    18    21    1
    25    18    20    1
