@<TRIPOS>MOLECULE
1,2,7,8,9
 25 25 0 0 0
SMALL
GASTEIGER

@<TRIPOS>ATOM
      1 C           5.1882   -0.4622   29.5946 C.2     1  UNL1       -0.0584
      2 C           5.5503   -0.6899   27.3067 C.2     1  UNL1       -0.0584
      3 C           3.0935   -0.9933   28.1434 C.3     1  UNL1       -0.0510
      4 H           2.9580   -2.0714   28.2517 H       1  UNL1        0.0242
      5 H           2.7524   -0.6934   27.1544 H       1  UNL1        0.0242
      6 H           2.4829   -0.4849   28.8876 H       1  UNL1        0.0242
      7 C           4.5339   -0.6397   28.3268 C.3     1  UNL1        0.0231
      8 C           6.5817   -0.3317   29.3530 C.2     1  UNL1       -0.0477
      9 C           6.8086   -0.4677   27.9420 C.2     1  UNL1       -0.0477
     10 C           4.5168   -0.5544   30.9236 C.3     1  UNL1       -0.0424
     11 H           3.8435    0.2945   31.0635 H       1  UNL1        0.0275
     12 H           5.2438   -0.5540   31.7312 H       1  UNL1        0.0275
     13 H           3.9240   -1.4677   30.9727 H       1  UNL1        0.0275
     14 C           7.6334   -0.3113   30.4151 C.3     1  UNL1       -0.0395
     15 H           7.7729   -1.3238   30.7997 H       1  UNL1        0.0278
     16 H           7.3355    0.3294   31.2433 H       1  UNL1        0.0278
     17 H           8.5896    0.0346   30.0286 H       1  UNL1        0.0278
     18 C           5.3062   -1.0809   25.8870 C.3     1  UNL1       -0.0424
     19 H           4.8996   -2.0920   25.8497 H       1  UNL1        0.0275
     20 H           6.2219   -1.0470   25.3029 H       1  UNL1        0.0275
     21 H           4.5799   -0.4039   25.4344 H       1  UNL1        0.0275
     22 C           8.1524   -0.6432   27.3068 C.3     1  UNL1       -0.0395
     23 H           8.9103   -0.0283   27.7894 H       1  UNL1        0.0278
     24 H           8.1260   -0.3947   26.2484 H       1  UNL1        0.0278
     25 H           8.4582   -1.6870   27.4041 H       1  UNL1        0.0278
@<TRIPOS>BOND
     1    20    18    1
     2    21    18    1
     3    19    18    1
     4    18     2    1
     5    24    22    1
     6     5     3    1
     7     2     9    2
     8     2     7    1
     9    22    25    1
    10    22    23    1
    11    22     9    1
    12     9     8    1
    13     3     4    1
    14     3     7    1
    15     3     6    1
    16     7     1    1
    17     8     1    2
    18     8    14    1
    19     1    10    1
    20    17    14    1
    21    14    15    1
    22    14    16    1
    23    10    13    1
    24    10    11    1
    25    10    12    1
