@<TRIPOS>MOLECULE
1,2,3,4,5
 25 25 0 0 0
SMALL
GASTEIGER

@<TRIPOS>ATOM
      1 C           6.3265   24.3978    3.1726 C.3     1  UNL1       -0.0053
      2 C           6.2833   23.0646    3.6795 C.3     1  UNL1        0.0052
      3 C           4.9096   22.7057    3.8784 C.2     1  UNL1       -0.0658
      4 C           4.1099   23.7855    3.4156 C.2     1  UNL1       -0.0658
      5 C           4.9806   24.8234    2.9597 C.3     1  UNL1        0.0052
      6 C           7.5240   25.2919    3.3140 C.3     1  UNL1       -0.0574
      7 H           7.5411   25.6822    4.3343 H       1  UNL1        0.0236
      8 H           7.4921   26.1461    2.6448 H       1  UNL1        0.0236
      9 H           8.4540   24.7523    3.1596 H       1  UNL1        0.0236
     10 C           7.4603   22.3177    4.2428 C.3     1  UNL1       -0.0545
     11 H           8.3330   22.3821    3.5927 H       1  UNL1        0.0239
     12 H           7.2209   21.2694    4.4024 H       1  UNL1        0.0239
     13 H           7.7422   22.7447    5.2075 H       1  UNL1        0.0239
     14 C           4.4687   21.5516    4.7294 C.3     1  UNL1       -0.0430
     15 H           4.7462   20.5878    4.3048 H       1  UNL1        0.0275
     16 H           3.3935   21.5688    4.8793 H       1  UNL1        0.0275
     17 H           4.9435   21.6295    5.7085 H       1  UNL1        0.0275
     18 C           2.6370   23.9915    3.6153 C.3     1  UNL1       -0.0430
     19 H           2.4767   24.7873    4.3453 H       1  UNL1        0.0275
     20 H           2.1512   23.0947    3.9887 H       1  UNL1        0.0275
     21 H           2.1357   24.2917    2.6925 H       1  UNL1        0.0275
     22 C           4.5098   26.2300    2.7127 C.3     1  UNL1       -0.0545
     23 H           5.3337   26.8855    2.4482 H       1  UNL1        0.0239
     24 H           4.0580   26.6241    3.6253 H       1  UNL1        0.0239
     25 H           3.7497   26.2804    1.9313 H       1  UNL1        0.0239
@<TRIPOS>BOND
     1    25    22    1
     2    23    22    1
     3     8     6    1
     4    21    18    1
     5    22     5    1
     6    22    24    1
     7     5     1    1
     8     5     4    1
     9     9     6    1
    10     1     6    1
    11     1     2    1
    12     6     7    1
    13     4    18    1
    14     4     3    2
    15    11    10    1
    16    18    20    1
    17    18    19    1
    18     2     3    1
    19     2    10    1
    20     3    14    1
    21    10    12    1
    22    10    13    1
    23    15    14    1
    24    14    16    1
    25    14    17    1
