@<TRIPOS>MOLECULE
1,2,3,4,5
 25 25 0 0 0
SMALL
GASTEIGER

@<TRIPOS>ATOM
      1 C           6.3117   24.6188   -0.0706 C.3     1  UNL1        0.0052
      2 C           7.3329   23.6448    0.1305 C.2     1  UNL1       -0.0658
      3 C           6.8787   22.4134   -0.4268 C.2     1  UNL1       -0.0658
      4 C           5.5855   22.6267   -0.9920 C.3     1  UNL1        0.0052
      5 C           5.2133   23.9782   -0.7319 C.3     1  UNL1       -0.0053
      6 C           6.4973   26.1097   -0.0846 C.3     1  UNL1       -0.0545
      7 H           6.8099   26.4091   -1.0880 H       1  UNL1        0.0239
      8 H           7.2706   26.4397    0.6026 H       1  UNL1        0.0239
      9 H           5.5746   26.6398    0.1367 H       1  UNL1        0.0239
     10 C           8.7678   23.8971    0.4981 C.3     1  UNL1       -0.0430
     11 H           9.1237   23.2119    1.2687 H       1  UNL1        0.0275
     12 H           8.9212   24.9166    0.8368 H       1  UNL1        0.0275
     13 H           9.3942   23.7454   -0.3826 H       1  UNL1        0.0275
     14 C           7.7561   21.2341   -0.7305 C.3     1  UNL1       -0.0430
     15 H           7.1764   20.3200   -0.8270 H       1  UNL1        0.0275
     16 H           8.5235   21.0926    0.0272 H       1  UNL1        0.0275
     17 H           8.2660   21.4039   -1.6816 H       1  UNL1        0.0275
     18 C           4.9269   21.6528   -1.9191 C.3     1  UNL1       -0.0545
     19 H           5.6109   21.4202   -2.7363 H       1  UNL1        0.0239
     20 H           4.0202   22.0646   -2.3521 H       1  UNL1        0.0239
     21 H           4.6818   20.7160   -1.4171 H       1  UNL1        0.0239
     22 C           4.0749   24.7370   -1.3564 C.3     1  UNL1       -0.0574
     23 H           3.3429   24.0646   -1.7959 H       1  UNL1        0.0236
     24 H           4.4572   25.3796   -2.1519 H       1  UNL1        0.0236
     25 H           3.5657   25.3794   -0.6363 H       1  UNL1        0.0236
@<TRIPOS>BOND
     1    19    18    1
     2    20    18    1
     3    24    22    1
     4    18    21    1
     5    18     4    1
     6    23    22    1
     7    17    14    1
     8    22     5    1
     9    22    25    1
    10     7     6    1
    11     4     5    1
    12     4     3    1
    13    15    14    1
    14     5     1    1
    15    14     3    1
    16    14    16    1
    17     3     2    2
    18    13    10    1
    19     6     1    1
    20     6     9    1
    21     6     8    1
    22     1     2    1
    23     2    10    1
    24    10    12    1
    25    10    11    1
