@<TRIPOS>MOLECULE
1,2,3,4,5
 13 13 0 0 0
SMALL
GASTEIGER

@<TRIPOS>ATOM
      1 C          -5.2720   -0.5224    6.4190 C.3     1  UNL1        0.0084
      2 C          -4.3830   -1.6233    6.4314 C.2     1  UNL1       -0.0761
      3 C          -3.2496   -1.2722    5.6632 C.2     1  UNL1       -0.0651
      4 C          -3.4472    0.0375    5.1697 C.2     1  UNL1       -0.0625
      5 C          -4.7006    0.5112    5.6402 C.2     1  UNL1       -0.0650
      6 C          -5.3841    1.7599    5.1804 C.3     1  UNL1       -0.0429
      7 H          -6.2786   -0.5215    6.8166 H       1  UNL1        0.0397
      8 H          -4.6003   -2.6081    6.8241 H       1  UNL1        0.0578
      9 H          -2.4495   -1.9393    5.3699 H       1  UNL1        0.0615
     10 H          -2.8399    0.5224    4.4178 H       1  UNL1        0.0617
     11 H          -6.1556    2.0711    5.8838 H       1  UNL1        0.0275
     12 H          -4.6722    2.5756    5.0596 H       1  UNL1        0.0275
     13 H          -5.8597    1.5774    4.2134 H       1  UNL1        0.0275
@<TRIPOS>BOND
     1    13     6    1
     2    10     4    1
     3    12     6    1
     4     4     5    2
     5     4     3    1
     6     6     5    1
     7     6    11    1
     8     9     3    1
     9     5     1    1
    10     3     2    2
    11     1     2    1
    12     1     7    1
    13     2     8    1
