@<TRIPOS>MOLECULE
2,3,5,7,9
 22 22 0 0 0
SMALL
GASTEIGER

@<TRIPOS>ATOM
      1 SI          2.2819    2.6216    7.4169 Si      1  UNL1        0.0000
      2 C           4.0069    2.7243    6.6612 C.3     1  UNL1        0.0000
      3 C           5.2387    2.3879    7.2861 C.3     1  UNL1        0.0000
      4 H           5.3267    1.8870    8.2449 H       1  UNL1        0.0000
      5 C           6.2895    2.5490    6.3496 C.2     1  UNL1        0.0000
      6 H           7.3185    2.2557    6.5009 H       1  UNL1        0.0000
      7 C           5.7308    3.0018    5.1506 C.2     1  UNL1        0.0000
      8 H           6.2572    3.1562    4.2169 H       1  UNL1        0.0000
      9 C           4.3403    3.1213    5.3376 C.3     1  UNL1        0.0000
     10 H           3.6184    3.3474    4.5604 H       1  UNL1        0.0000
     11 C           1.6659    0.8125    7.3315 C.3     1  UNL1        0.0000
     12 H           1.6041    0.4564    6.3079 H       1  UNL1        0.0000
     13 H           0.6769    0.7291    7.7691 H       1  UNL1        0.0000
     14 H           2.3233    0.1404    7.8741 H       1  UNL1        0.0000
     15 C           1.1270    3.7905    6.4522 C.3     1  UNL1        0.0000
     16 H           1.6222    4.7424    6.2725 H       1  UNL1        0.0000
     17 H           0.2130    3.9883    7.0027 H       1  UNL1        0.0000
     18 H           0.8446    3.3724    5.4903 H       1  UNL1        0.0000
     19 C           2.4321    3.1839    9.2377 C.3     1  UNL1        0.0000
     20 H           3.1271    2.5608    9.7943 H       1  UNL1        0.0000
     21 H           1.4751    3.1364    9.7472 H       1  UNL1        0.0000
     22 H           2.7912    4.2106    9.2887 H       1  UNL1        0.0000
@<TRIPOS>BOND
     1     8     7    1
     2    10     9    1
     3     7     9    1
     4     7     5    2
     5     9     2    1
     6    18    15    1
     7    16    15    1
     8    12    11    1
     9     5     6    1
    10     5     3    1
    11    15    17    1
    12    15     1    1
    13     2     3    1
    14     2     1    1
    15     3     4    1
    16    11     1    1
    17    11    13    1
    18    11    14    1
    19     1    19    1
    20    19    22    1
    21    19    21    1
    22    19    20    1
