@<TRIPOS>MOLECULE
1,3,8,9,14
 46 48 0 0 0
SMALL
GASTEIGER

@<TRIPOS>ATOM
      1 C           6.4728    2.0463    1.7301 C.3     1  UNL1        0.0217
      2 H           6.9911    2.6993    1.0410 H       1  UNL1        0.0407
      3 C           5.2236    1.4203    1.4646 C.ar    1  UNL1       -0.0279
      4 C           4.3026    1.6249    0.4092 C.ar    1  UNL1       -0.0429
      5 C           3.1763    0.8235    0.3502 C.ar    1  UNL1       -0.0441
      6 C           2.8853   -0.0912    1.3932 C.ar    1  UNL1       -0.0438
      7 C           3.7410   -0.2582    2.4747 C.ar    1  UNL1       -0.0393
      8 C           4.9975    0.3908    2.4544 C.ar    1  UNL1       -0.0101
      9 C           6.2116    0.2820    3.2399 C.ar    1  UNL1       -0.0101
     10 C           6.7390   -0.7217    4.0797 C.ar    1  UNL1       -0.0393
     11 C           7.9747   -0.5159    4.6818 C.ar    1  UNL1       -0.0438
     12 C           8.7972    0.5796    4.3278 C.ar    1  UNL1       -0.0441
     13 C           8.3998    1.4690    3.3420 C.ar    1  UNL1       -0.0429
     14 C           7.0956    1.3442    2.8040 C.ar    1  UNL1       -0.0279
     15 C           4.6017    2.6549   -0.6509 C.3     1  UNL1       -0.0392
     16 H           3.8078    3.3995   -0.7170 H       1  UNL1        0.0278
     17 H           4.7034    2.1809   -1.6273 H       1  UNL1        0.0278
     18 H           5.5313    3.1741   -0.4386 H       1  UNL1        0.0278
     19 C           2.1916    0.9592   -0.7783 C.3     1  UNL1       -0.0392
     20 H           2.4573    1.7666   -1.4508 H       1  UNL1        0.0278
     21 H           1.1930    1.1562   -0.3905 H       1  UNL1        0.0278
     22 H           2.1511    0.0387   -1.3612 H       1  UNL1        0.0278
     23 C           1.5839   -0.8463    1.3492 C.3     1  UNL1       -0.0392
     24 H           1.6210   -1.7332    1.9734 H       1  UNL1        0.0278
     25 H           1.3564   -1.1648    0.3355 H       1  UNL1        0.0278
     26 H           0.7605   -0.2189    1.6961 H       1  UNL1        0.0278
     27 C           3.2432   -0.9659    3.7091 C.3     1  UNL1       -0.0389
     28 H           2.2345   -0.6197    3.9328 H       1  UNL1        0.0278
     29 H           3.8767   -0.7192    4.5563 H       1  UNL1        0.0278
     30 H           3.2038   -2.0489    3.5958 H       1  UNL1        0.0278
     31 C           6.0783   -2.0678    4.1971 C.3     1  UNL1       -0.0389
     32 H           6.8365   -2.8481    4.1679 H       1  UNL1        0.0278
     33 H           5.4147   -2.2196    3.3532 H       1  UNL1        0.0278
     34 H           5.5143   -2.1847    5.1223 H       1  UNL1        0.0278
     35 C           8.4921   -1.5193    5.6772 C.3     1  UNL1       -0.0392
     36 H           7.6788   -2.0794    6.1282 H       1  UNL1        0.0278
     37 H           9.0347   -1.0241    6.4783 H       1  UNL1        0.0278
     38 H           9.1743   -2.2263    5.2019 H       1  UNL1        0.0278
     39 C          10.1537    0.6946    4.9687 C.3     1  UNL1       -0.0392
     40 H          10.6965    1.5617    4.6109 H       1  UNL1        0.0278
     41 H          10.7489   -0.1944    4.7616 H       1  UNL1        0.0278
     42 H          10.0596    0.7873    6.0504 H       1  UNL1        0.0278
     43 C           9.3437    2.5049    2.7850 C.3     1  UNL1       -0.0392
     44 H          10.2933    2.0486    2.5077 H       1  UNL1        0.0278
     45 H           9.5394    3.2923    3.5136 H       1  UNL1        0.0278
     46 H           8.9307    2.9628    1.8913 H       1  UNL1        0.0278
@<TRIPOS>BOND
     1    17    15    1
     2    20    19    1
     3    22    19    1
     4    19    21    1
     5    19     5    1
     6    16    15    1
     7    15    18    1
     8    15     4    1
     9    25    23    1
    10     5     4   ar
    11     5     6   ar
    12     4     3   ar
    13     2     1    1
    14    23     6    1
    15    23    26    1
    16    23    24    1
    17     6     7   ar
    18     3     1    1
    19     3     8   ar
    20     1    14    1
    21    46    43    1
    22     8     7   ar
    23     8     9    1
    24     7    27    1
    25    44    43    1
    26    43    13    1
    27    43    45    1
    28    14     9   ar
    29    14    13   ar
    30     9    10   ar
    31    13    12   ar
    32    33    31    1
    33    30    27    1
    34    27    28    1
    35    27    29    1
    36    10    31    1
    37    10    11   ar
    38    32    31    1
    39    31    34    1
    40    12    11   ar
    41    12    39    1
    42    40    39    1
    43    11    35    1
    44    41    39    1
    45    39    42    1
    46    38    35    1
    47    35    36    1
    48    35    37    1
