@<TRIPOS>MOLECULE
1,2,3,4,5
 36 37 0 0 0
SMALL
GASTEIGER

@<TRIPOS>ATOM
      1 C           1.8292    9.3439    3.4218 C.3     1  UNL1        0.0000
      2 C           1.9423    9.4440    4.8462 C.2     1  UNL1        0.0000
      3 C           3.3279    9.2029    5.1087 C.2     1  UNL1        0.0000
      4 C           4.0490    9.0518    3.9059 C.3     1  UNL1        0.0000
      5 C           3.0948    9.1432    2.8324 C.3     1  UNL1        0.0000
      6 BR          0.1921    9.1461    2.4609 Br      1  UNL1        0.0000
      7 SI          0.5045    9.4472    6.0909 Si      1  UNL1        0.0000
      8 C          -0.1551    7.6600    6.1204 C.3     1  UNL1        0.0000
      9 H          -0.4888    7.3367    5.1378 H       1  UNL1        0.0000
     10 H          -1.0041    7.5878    6.7928 H       1  UNL1        0.0000
     11 H           0.5987    6.9579    6.4661 H       1  UNL1        0.0000
     12 C           1.0313   10.0722    7.8051 C.3     1  UNL1        0.0000
     13 H           1.5378    9.3051    8.3809 H       1  UNL1        0.0000
     14 H           0.1524   10.3772    8.3650 H       1  UNL1        0.0000
     15 H           1.6926   10.9329    7.7443 H       1  UNL1        0.0000
     16 CL         -0.9036   10.7450    5.3870 Cl      1  UNL1        0.0000
     17 BR          4.0637    8.7874    6.8190 Br      1  UNL1        0.0000
     18 SI          5.6845    8.2548    3.3706 Si      1  UNL1        0.0000
     19 C           5.8421    6.5514    4.1893 C.3     1  UNL1        0.0000
     20 H           4.9301    5.9664    4.1058 H       1  UNL1        0.0000
     21 H           6.0840    6.6457    5.2427 H       1  UNL1        0.0000
     22 H           6.6392    5.9868    3.7172 H       1  UNL1        0.0000
     23 C           7.2030    9.3717    3.5202 C.3     1  UNL1        0.0000
     24 H           8.0748    8.8747    3.1079 H       1  UNL1        0.0000
     25 H           7.4144    9.5989    4.5602 H       1  UNL1        0.0000
     26 H           7.0750   10.3112    2.9908 H       1  UNL1        0.0000
     27 O           5.2555    8.0791    1.7860 O.3     1  UNL1        0.0000
     28 SI          3.7570    8.4497    1.1966 Si      1  UNL1        0.0000
     29 C           2.8224    6.8580    0.7639 C.3     1  UNL1        0.0000
     30 H           3.3333    6.3347   -0.0375 H       1  UNL1        0.0000
     31 H           1.8157    7.0788    0.4250 H       1  UNL1        0.0000
     32 H           2.7499    6.1779    1.6082 H       1  UNL1        0.0000
     33 C           3.9016    9.7145   -0.2018 C.3     1  UNL1        0.0000
     34 H           4.4599   10.5967    0.0977 H       1  UNL1        0.0000
     35 H           2.9194   10.0358   -0.5331 H       1  UNL1        0.0000
     36 H           4.4092    9.2741   -1.0537 H       1  UNL1        0.0000
@<TRIPOS>BOND
     1    36    33    1
     2    35    33    1
     3    33    34    1
     4    33    28    1
     5    30    29    1
     6    31    29    1
     7    29    28    1
     8    29    32    1
     9    28    27    1
    10    28     5    1
    11    27    18    1
    12     6     1    1
    13     5     1    1
    14     5     4    1
    15    26    23    1
    16    24    23    1
    17    18    23    1
    18    18     4    1
    19    18    19    1
    20     1     2    1
    21    23    25    1
    22    22    19    1
    23     4     3    1
    24    20    19    1
    25    19    21    1
    26     2     3    2
    27     2     7    1
    28     3    17    1
    29     9     8    1
    30    16     7    1
    31     7     8    1
    32     7    12    1
    33     8    11    1
    34     8    10    1
    35    15    12    1
    36    12    14    1
    37    12    13    1
