@<TRIPOS>MOLECULE
1,3,5,7,9
 10 10 0 0 0
SMALL
GASTEIGER

@<TRIPOS>ATOM
      1 C           6.0798    5.9328    9.2803 C.2     1  UNL1       -0.0763
      2 H           6.6608    6.7796    8.9622 H       1  UNL1        0.0578
      3 C           6.2208    5.2357   10.4952 C.2     1  UNL1       -0.0654
      4 H           6.9298    5.4467   11.2739 H       1  UNL1        0.0615
      5 C           5.3039    4.1606   10.4772 C.2     1  UNL1       -0.0654
      6 H           5.2065    3.4115   11.2419 H       1  UNL1        0.0615
      7 C           4.6646    4.1345    9.2178 C.2     1  UNL1       -0.0763
      8 H           3.9959    3.3715    8.8651 H       1  UNL1        0.0578
      9 C           5.1165    5.2522    8.4904 C.3     1  UNL1        0.0054
     10 H           4.8520    5.5010    7.4785 H       1  UNL1        0.0394
@<TRIPOS>BOND
     1    10     9    1
     2     9     7    1
     3     9     1    1
     4     8     7    1
     5     2     1    1
     6     7     5    2
     7     1     3    2
     8     5     3    1
     9     5     6    1
    10     3     4    1
