@<TRIPOS>MOLECULE
1,2,3,4,5
 10 10 0 0 0
SMALL
GASTEIGER

@<TRIPOS>ATOM
      1 C           1.5555    2.3163    3.7504 C.2     1  UNL1       -0.0654
      2 C           1.0107    1.5172    2.7275 C.2     1  UNL1       -0.0763
      3 C           0.9312    0.1919    3.2048 C.3     1  UNL1        0.0054
      4 C           1.4311    0.1755    4.5261 C.2     1  UNL1       -0.0763
      5 C           1.8174    1.4906    4.8600 C.2     1  UNL1       -0.0654
      6 H           1.8322    3.3589    3.6587 H       1  UNL1        0.0615
      7 H           0.8202    1.8439    1.7156 H       1  UNL1        0.0578
      8 H           0.6980   -0.6841    2.6093 H       1  UNL1        0.0394
      9 H           1.6429   -0.7152    5.1077 H       1  UNL1        0.0578
     10 H           2.3473    1.7936    5.7513 H       1  UNL1        0.0615
@<TRIPOS>BOND
     1     7     2    1
     2     8     3    1
     3     2     3    1
     4     2     1    2
     5     3     4    1
     6     6     1    1
     7     1     5    1
     8     4     5    2
     9     4     9    1
    10     5    10    1
