@<TRIPOS>MOLECULE
1,2,3,4,5
 10 10 0 0 0
SMALL
GASTEIGER

@<TRIPOS>ATOM
      1 C          -3.1349    0.6644    4.7632 C.2     1  UNL1       -0.0763
      2 C          -2.6306    0.6454    6.0772 C.3     1  UNL1        0.0054
      3 C          -1.6295   -0.3482    6.1472 C.2     1  UNL1       -0.0763
      4 C          -1.5274   -0.9511    4.8769 C.2     1  UNL1       -0.0654
      5 C          -2.4473   -0.3176    4.0165 C.2     1  UNL1       -0.0654
      6 H          -3.9857    1.2388    4.4260 H       1  UNL1        0.0578
      7 H          -3.0320    1.2032    6.9110 H       1  UNL1        0.0394
      8 H          -1.1642   -0.7062    7.0559 H       1  UNL1        0.0578
      9 H          -0.9541   -1.8413    4.6439 H       1  UNL1        0.0615
     10 H          -2.7129   -0.6486    3.0215 H       1  UNL1        0.0615
@<TRIPOS>BOND
     1    10     5    1
     2     5     1    2
     3     5     4    1
     4     6     1    1
     5     9     4    1
     6     1     2    1
     7     4     3    2
     8     2     3    1
     9     2     7    1
    10     3     8    1
