@<TRIPOS>MOLECULE
1,2,3,4,5
 10 10 0 0 0
SMALL
GASTEIGER

@<TRIPOS>ATOM
      1 C           5.0996    3.4145    2.7311 C.2     1  UNL1       -0.0654
      2 C           4.3603    2.3610    2.1503 C.2     1  UNL1       -0.0763
      3 C           4.5809    1.1882    2.9204 C.3     1  UNL1        0.0054
      4 C           5.4907    1.5132    3.9463 C.2     1  UNL1       -0.0763
      5 C           5.8293    2.8843    3.8181 C.2     1  UNL1       -0.0654
      6 H           5.0548    4.4539    2.4558 H       1  UNL1        0.0615
      7 H           3.6250    2.4648    1.3689 H       1  UNL1        0.0578
      8 H           4.0591    0.2525    2.8066 H       1  UNL1        0.0394
      9 H           5.7945    0.8637    4.7512 H       1  UNL1        0.0578
     10 H           6.4069    3.4613    4.5212 H       1  UNL1        0.0615
@<TRIPOS>BOND
     1     7     2    1
     2     2     1    2
     3     2     3    1
     4     6     1    1
     5     1     5    1
     6     8     3    1
     7     3     4    1
     8     5     4    2
     9     5    10    1
    10     4     9    1
