@<TRIPOS>MOLECULE
23,24,25,27,29
 50 53 0 0 0
SMALL
GASTEIGER

@<TRIPOS>ATOM
      1 SI          4.5469    6.2585    1.0461 Si      1  UNL1        0.0000
      2 O           4.2688    6.6933    2.6037 O.3     1  UNL1        0.0000
      3 C           2.5722    3.8847    3.4506 C.ar    1  UNL1        0.0000
      4 C           2.4464    5.2718    3.3021 C.ar    1  UNL1        0.0000
      5 C           1.2886    5.8378    2.8150 C.ar    1  UNL1        0.0000
      6 H           1.2069    6.9113    2.6796 H       1  UNL1        0.0000
      7 C           0.2327    4.9943    2.4883 C.ar    1  UNL1        0.0000
      8 H          -0.6856    5.4157    2.1086 H       1  UNL1        0.0000
      9 C           0.3471    3.6210    2.6424 C.ar    1  UNL1        0.0000
     10 H          -0.4861    2.9853    2.3813 H       1  UNL1        0.0000
     11 C           1.5171    3.0506    3.1211 C.ar    1  UNL1        0.0000
     12 H           1.6021    1.9801    3.2317 H       1  UNL1        0.0000
     13 C           3.9063    3.5917    3.9586 C.ar    1  UNL1        0.0000
     14 C           4.5139    2.3890    4.2754 C.ar    1  UNL1        0.0000
     15 H           3.9817    1.4558    4.1689 H       1  UNL1        0.0000
     16 C           5.8235    2.4072    4.7311 C.ar    1  UNL1        0.0000
     17 H           6.3138    1.4779    4.9807 H       1  UNL1        0.0000
     18 C           6.5118    3.6019    4.8696 C.ar    1  UNL1        0.0000
     19 H           7.5317    3.5918    5.2241 H       1  UNL1        0.0000
     20 C           5.9054    4.8129    4.5579 C.ar    1  UNL1        0.0000
     21 H           6.4409    5.7431    4.6644 H       1  UNL1        0.0000
     22 C           4.6069    4.7972    4.1022 C.ar    1  UNL1        0.0000
     23 C           3.5621    6.9466    4.8346 C.3     1  UNL1        0.0000
     24 C           4.4110    8.0686    5.1127 C.3     1  UNL1        0.0000
     25 C           3.9412    8.6615    6.3108 C.2     1  UNL1        0.0000
     26 H           4.4184    9.4852    6.8274 H       1  UNL1        0.0000
     27 C           2.8265    7.9329    6.7689 C.2     1  UNL1        0.0000
     28 H           2.2978    8.1008    7.6986 H       1  UNL1        0.0000
     29 C           2.5908    6.8600    5.8809 C.3     1  UNL1        0.0000
     30 C           3.7349    5.9726    3.6875 C.3     1  UNL1        0.0000
     31 C           5.6434    8.5506    4.3974 C.3     1  UNL1        0.0000
     32 H           6.5267    8.3502    5.0089 H       1  UNL1        0.0000
     33 H           5.5835    9.6315    4.2398 H       1  UNL1        0.0000
     34 H           5.7549    8.0603    3.4346 H       1  UNL1        0.0000
     35 C           1.5970    5.7663    6.1429 C.3     1  UNL1        0.0000
     36 H           0.7596    5.7963    5.4452 H       1  UNL1        0.0000
     37 H           1.2017    5.8765    7.1518 H       1  UNL1        0.0000
     38 H           2.0756    4.7906    6.0600 H       1  UNL1        0.0000
     39 C           5.5849    7.7477    0.4784 C.3     1  UNL1        0.0000
     40 H           5.0944    8.6798    0.7418 H       1  UNL1        0.0000
     41 H           5.7116    7.7330   -0.5982 H       1  UNL1        0.0000
     42 H           6.5757    7.7542    0.9231 H       1  UNL1        0.0000
     43 C           2.9540    6.1045    0.0100 C.3     1  UNL1        0.0000
     44 H           2.3845    5.2125    0.2568 H       1  UNL1        0.0000
     45 H           3.1839    6.0616   -1.0499 H       1  UNL1        0.0000
     46 H           2.3080    6.9631    0.1696 H       1  UNL1        0.0000
     47 C           5.5259    4.6236    0.9271 C.3     1  UNL1        0.0000
     48 H           6.4034    4.6333    1.5676 H       1  UNL1        0.0000
     49 H           5.8627    4.4434   -0.0882 H       1  UNL1        0.0000
     50 H           4.9189    3.7731    1.2249 H       1  UNL1        0.0000
@<TRIPOS>BOND
     1    45    43    1
     2    41    39    1
     3    49    47    1
     4    43    46    1
     5    43    44    1
     6    43     1    1
     7    39    40    1
     8    39    42    1
     9    39     1    1
    10    47     1    1
    11    47    50    1
    12    47    48    1
    13     1     2    1
    14     8     7    1
    15    10     9    1
    16     7     9   ar
    17     7     5   ar
    18     2    30    1
    19     9    11   ar
    20     6     5    1
    21     5     4   ar
    22    11    12    1
    23    11     3   ar
    24     4     3   ar
    25     4    30    1
    26    34    31    1
    27     3    13    1
    28    30    22    1
    29    30    23    1
    30    13    22   ar
    31    13    14   ar
    32    22    20   ar
    33    15    14    1
    34    33    31    1
    35    14    16   ar
    36    31    32    1
    37    31    24    1
    38    20    21    1
    39    20    18   ar
    40    16    18   ar
    41    16    17    1
    42    23    24    1
    43    23    29    1
    44    18    19    1
    45    24    25    1
    46    36    35    1
    47    29    35    1
    48    29    27    1
    49    38    35    1
    50    35    37    1
    51    25    27    2
    52    25    26    1
    53    27    28    1
