@<TRIPOS>MOLECULE
3,4,5,7,9
 52 54 0 0 0
SMALL
GASTEIGER

@<TRIPOS>ATOM
      1 SI          4.4622    0.7065    3.0861 Si      1  UNL1        0.0000
      2 O           3.5523    2.0783    3.1802 O.3     1  UNL1        0.0000
      3 C           2.2782    3.9448    3.4600 C.3     1  UNL1        0.0000
      4 C           1.5873    4.6707    2.4535 C.3     1  UNL1        0.0000
      5 C           0.2174    4.6623    2.8001 C.2     1  UNL1        0.0000
      6 H          -0.5430    5.2420    2.2914 H       1  UNL1        0.0000
      7 C           0.0528    3.9303    3.9990 C.2     1  UNL1        0.0000
      8 H          -0.8534    3.8478    4.5868 H       1  UNL1        0.0000
      9 C           1.3229    3.4700    4.4101 C.3     1  UNL1        0.0000
     10 C           2.1328    5.4665    1.3028 C.3     1  UNL1        0.0000
     11 H           1.3096    5.9594    0.7855 H       1  UNL1        0.0000
     12 H           2.6615    4.8394    0.5853 H       1  UNL1        0.0000
     13 H           2.8277    6.2292    1.6566 H       1  UNL1        0.0000
     14 C           1.5716    2.7395    5.6996 C.3     1  UNL1        0.0000
     15 H           1.7708    3.4484    6.5073 H       1  UNL1        0.0000
     16 H           2.4240    2.0666    5.6200 H       1  UNL1        0.0000
     17 H           0.6917    2.1522    5.9678 H       1  UNL1        0.0000
     18 C           3.7206    3.4667    3.4928 C.3     1  UNL1        0.0000
     19 C           4.3213    3.7425    4.8688 C.ar    1  UNL1        0.0000
     20 C           5.3948    3.0230    5.3699 C.ar    1  UNL1        0.0000
     21 H           5.8085    2.2093    4.8025 H       1  UNL1        0.0000
     22 C           5.9501    3.3410    6.5981 C.ar    1  UNL1        0.0000
     23 H           6.7790    2.7587    6.9729 H       1  UNL1        0.0000
     24 C           5.4589    4.4024    7.3357 C.ar    1  UNL1        0.0000
     25 H           5.8942    4.6515    8.2919 H       1  UNL1        0.0000
     26 C           4.4097    5.1502    6.8294 C.ar    1  UNL1        0.0000
     27 H           4.0254    5.9922    7.3868 H       1  UNL1        0.0000
     28 C           3.8479    4.8254    5.6084 C.ar    1  UNL1        0.0000
     29 H           3.0308    5.4209    5.2252 H       1  UNL1        0.0000
     30 C           4.6110    4.1672    2.4683 C.ar    1  UNL1        0.0000
     31 C           4.8907    3.5809    1.2410 C.ar    1  UNL1        0.0000
     32 H           4.4584    2.6265    0.9904 H       1  UNL1        0.0000
     33 C           5.7061    4.2196    0.3227 C.ar    1  UNL1        0.0000
     34 H           5.9089    3.7452   -0.6258 H       1  UNL1        0.0000
     35 C           6.2538    5.4558    0.6142 C.ar    1  UNL1        0.0000
     36 H           6.8924    5.9534   -0.1006 H       1  UNL1        0.0000
     37 C           5.9733    6.0516    1.8317 C.ar    1  UNL1        0.0000
     38 H           6.3915    7.0184    2.0715 H       1  UNL1        0.0000
     39 C           5.1599    5.4144    2.7516 C.ar    1  UNL1        0.0000
     40 H           4.9558    5.8972    3.6953 H       1  UNL1        0.0000
     41 C           3.7325   -0.3209    1.6560 C.3     1  UNL1        0.0000
     42 H           2.6602   -0.4637    1.7714 H       1  UNL1        0.0000
     43 H           4.1936   -1.3038    1.6362 H       1  UNL1        0.0000
     44 H           3.8980    0.1394    0.6855 H       1  UNL1        0.0000
     45 C           6.3203    0.9853    2.6907 C.3     1  UNL1        0.0000
     46 H           6.5754    0.5383    1.7351 H       1  UNL1        0.0000
     47 H           6.9535    0.5148    3.4368 H       1  UNL1        0.0000
     48 H           6.5942    2.0347    2.6351 H       1  UNL1        0.0000
     49 C           4.2698   -0.2671    4.7228 C.3     1  UNL1        0.0000
     50 H           4.6289    0.2750    5.5935 H       1  UNL1        0.0000
     51 H           4.8170   -1.2028    4.6722 H       1  UNL1        0.0000
     52 H           3.2252   -0.5106    4.8949 H       1  UNL1        0.0000
@<TRIPOS>BOND
     1    34    33    1
     2    36    35    1
     3    33    35   ar
     4    33    31   ar
     5    12    10    1
     6    35    37   ar
     7    44    41    1
     8    11    10    1
     9    32    31    1
    10    31    30   ar
    11    10    13    1
    12    10     4    1
    13    43    41    1
    14    41    42    1
    15    41     1    1
    16    46    45    1
    17    37    38    1
    18    37    39   ar
    19     6     5    1
    20     4     5    1
    21     4     3    1
    22    30    39   ar
    23    30    18    1
    24    48    45    1
    25    45     1    1
    26    45    47    1
    27    39    40    1
    28     5     7    2
    29     1     2    1
    30     1    49    1
    31     2    18    1
    32     3    18    1
    33     3     9    1
    34    18    19    1
    35     7     9    1
    36     7     8    1
    37     9    14    1
    38    51    49    1
    39    49    52    1
    40    49    50    1
    41    21    20    1
    42    19    20   ar
    43    19    28   ar
    44    29    28    1
    45    20    22   ar
    46    28    26   ar
    47    16    14    1
    48    14    17    1
    49    14    15    1
    50    22    23    1
    51    22    24   ar
    52    26    24   ar
    53    26    27    1
    54    24    25    1
