@<TRIPOS>MOLECULE
1,3,5,7,9
 10 10 0 0 0
SMALL
GASTEIGER

@<TRIPOS>ATOM
      1 C           4.7220    2.5007    5.4354 C.2     1  UNL1       -0.0654
      2 H           5.5126    3.1545    5.0960 H       1  UNL1        0.0615
      3 C           3.4680    2.3194    4.8154 C.2     1  UNL1       -0.0654
      4 H           3.1145    2.8206    3.9237 H       1  UNL1        0.0615
      5 C           2.8158    1.2367    5.4438 C.2     1  UNL1       -0.0763
      6 H           1.9023    0.7633    5.1067 H       1  UNL1        0.0578
      7 C           3.6649    0.7612    6.4772 C.3     1  UNL1        0.0054
      8 H           3.5162   -0.1553    7.0372 H       1  UNL1        0.0394
      9 C           4.8473    1.5346    6.4534 C.2     1  UNL1       -0.0763
     10 H           5.7419    1.3383    7.0322 H       1  UNL1        0.0578
@<TRIPOS>BOND
     1     4     3    1
     2     3     1    1
     3     3     5    2
     4     2     1    1
     5     6     5    1
     6     1     9    2
     7     5     7    1
     8     9     7    1
     9     9    10    1
    10     7     8    1
