@<TRIPOS>MOLECULE
1,3,5,7,9
 10 10 0 0 0
SMALL
GASTEIGER

@<TRIPOS>ATOM
      1 C           7.4169    4.0604    1.8344 C.3     1  UNL1        0.0054
      2 H           6.9039    3.2878    1.2740 H       1  UNL1        0.0394
      3 C           8.4496    3.8475    2.7821 C.2     1  UNL1       -0.0763
      4 H           8.8433    2.8884    3.0941 H       1  UNL1        0.0578
      5 C           9.0062    5.0983    3.1068 C.2     1  UNL1       -0.0654
      6 H           9.8659    5.2655    3.7431 H       1  UNL1        0.0615
      7 C           8.3228    6.0955    2.3651 C.2     1  UNL1       -0.0654
      8 H           8.6050    7.1388    2.3025 H       1  UNL1        0.0615
      9 C           7.3530    5.4458    1.5597 C.2     1  UNL1       -0.0763
     10 H           6.7704    5.9104    0.7767 H       1  UNL1        0.0578
@<TRIPOS>BOND
     1    10     9    1
     2     2     1    1
     3     9     1    1
     4     9     7    2
     5     1     3    1
     6     8     7    1
     7     7     5    1
     8     3     4    1
     9     3     5    2
    10     5     6    1
