@<TRIPOS>MOLECULE
1,3,5,7,9
 10 10 0 0 0
SMALL
GASTEIGER

@<TRIPOS>ATOM
      1 C          -0.9484    2.7795   10.5724 C.3     1  UNL1       -0.0235
      2 H          -1.8768    2.3796   10.1971 H       1  UNL1        0.0315
      3 C          -0.6489    4.1492   10.7752 C.3     1  UNL1       -0.0127
      4 H          -1.3337    4.9684   10.6120 H       1  UNL1        0.0352
      5 C           0.5748    4.2456   11.5106 C.2     1  UNL1       -0.0837
      6 H           0.9668    5.1463   11.9563 H       1  UNL1        0.0572
      7 C           1.0737    2.9531   11.6579 C.2     1  UNL1       -0.0837
      8 H           1.9344    2.6562   12.2369 H       1  UNL1        0.0572
      9 C           0.1481    2.0480   11.0491 C.3     1  UNL1       -0.0127
     10 H           0.2120    0.9727   11.1189 H       1  UNL1        0.0352
@<TRIPOS>BOND
     1     2     1    1
     2     1     3    1
     3     1     9    1
     4     4     3    1
     5     3     5    1
     6     9    10    1
     7     9     7    1
     8     5     7    2
     9     5     6    1
    10     7     8    1
