@<TRIPOS>MOLECULE
1,2,3,4,5
 13 13 0 0 0
SMALL
GASTEIGER

@<TRIPOS>ATOM
      1 C           3.5534   -0.0753   -0.5357 C.3     1  UNL1        0.0084
      2 C           3.7344   -0.1825    0.8633 C.2     1  UNL1       -0.0761
      3 C           4.6289    0.8424    1.2631 C.2     1  UNL1       -0.0651
      4 C           5.0059    1.5659    0.1077 C.2     1  UNL1       -0.0625
      5 C           4.3428    1.0031   -1.0151 C.2     1  UNL1       -0.0650
      6 C           4.6269    1.3261   -2.4456 C.3     1  UNL1       -0.0429
      7 H           3.0255   -0.7856   -1.1583 H       1  UNL1        0.0397
      8 H           3.3821   -0.9924    1.4881 H       1  UNL1        0.0578
      9 H           5.0740    0.9484    2.2432 H       1  UNL1        0.0615
     10 H           5.7861    2.3127    0.0606 H       1  UNL1        0.0617
     11 H           4.7873    2.3943   -2.5837 H       1  UNL1        0.0275
     12 H           3.8132    1.0048   -3.0939 H       1  UNL1        0.0275
     13 H           5.5348    0.8041   -2.7559 H       1  UNL1        0.0275
@<TRIPOS>BOND
     1    12     6    1
     2    13     6    1
     3    11     6    1
     4     6     5    1
     5     7     1    1
     6     5     1    1
     7     5     4    2
     8     1     2    1
     9    10     4    1
    10     4     3    1
    11     2     3    2
    12     2     8    1
    13     3     9    1
