@<TRIPOS>MOLECULE
1,2,3,4,5
 13 13 0 0 0
SMALL
GASTEIGER

@<TRIPOS>ATOM
      1 C           3.3118   -0.4345    0.8840 C.2     1  UNL1       -0.0541
      2 C           3.4844    0.9723    0.9814 C.2     1  UNL1       -0.0625
      3 C           2.2173    1.5695    1.1673 C.2     1  UNL1       -0.0761
      4 C           1.2447    0.5393    1.1576 C.3     1  UNL1        0.0057
      5 C           1.9166   -0.6904    0.9755 C.2     1  UNL1       -0.0734
      6 C           4.3616   -1.4180    0.4771 C.3     1  UNL1       -0.0400
      7 H           4.4104    1.4982    0.8017 H       1  UNL1        0.0617
      8 H           2.0167    2.6321    1.1540 H       1  UNL1        0.0578
      9 H           0.1727    0.6797    1.1400 H       1  UNL1        0.0394
     10 H           1.4472   -1.6467    0.7948 H       1  UNL1        0.0581
     11 H           4.1140   -2.4217    0.8187 H       1  UNL1        0.0277
     12 H           5.3366   -1.1385    0.8736 H       1  UNL1        0.0277
     13 H           4.4315   -1.4374   -0.6126 H       1  UNL1        0.0277
@<TRIPOS>BOND
     1    13     6    1
     2     6    11    1
     3     6    12    1
     4     6     1    1
     5    10     5    1
     6     7     2    1
     7     1     5    2
     8     1     2    1
     9     5     4    1
    10     2     3    2
    11     9     4    1
    12     8     3    1
    13     4     3    1
