@<TRIPOS>MOLECULE
1,2,3,4,5
 25 25 0 0 0
SMALL
GASTEIGER

@<TRIPOS>ATOM
      1 C           1.9926    5.2971   13.3007 C.2     1  UNL1       -0.0658
      2 C           3.3138    5.6960   13.0156 C.2     1  UNL1       -0.0658
      3 C           4.2134    4.7882   13.6935 C.3     1  UNL1        0.0052
      4 C           3.4339    3.8436   14.3922 C.3     1  UNL1       -0.0053
      5 C           2.0497    4.1407   14.1486 C.3     1  UNL1        0.0052
      6 C           0.7408    6.0499   12.9580 C.3     1  UNL1       -0.0430
      7 H          -0.0814    5.3667   12.7539 H       1  UNL1        0.0275
      8 H           0.8852    6.6755   12.0788 H       1  UNL1        0.0275
      9 H           0.4501    6.6964   13.7900 H       1  UNL1        0.0275
     10 C           3.7195    6.9955   12.3851 C.3     1  UNL1       -0.0430
     11 H           3.7580    7.7785   13.1471 H       1  UNL1        0.0275
     12 H           3.0064    7.3083   11.6232 H       1  UNL1        0.0275
     13 H           4.7053    6.9326   11.9244 H       1  UNL1        0.0275
     14 C           5.6843    5.0161   13.8843 C.3     1  UNL1       -0.0545
     15 H           6.1373    5.4951   13.0161 H       1  UNL1        0.0239
     16 H           6.2077    4.0790   14.0710 H       1  UNL1        0.0239
     17 H           5.8488    5.6670   14.7473 H       1  UNL1        0.0239
     18 C           3.9294    2.8572   15.4069 C.3     1  UNL1       -0.0574
     19 H           3.9683    3.3257   16.3938 H       1  UNL1        0.0236
     20 H           4.9297    2.5042   15.1615 H       1  UNL1        0.0236
     21 H           3.2687    1.9943   15.4654 H       1  UNL1        0.0236
     22 C           0.9292    3.6754   15.0278 C.3     1  UNL1       -0.0545
     23 H           1.0080    2.6163   15.2584 H       1  UNL1        0.0239
     24 H          -0.0389    3.8568   14.5694 H       1  UNL1        0.0239
     25 H           0.9663    4.2323   15.9680 H       1  UNL1        0.0239
@<TRIPOS>BOND
     1    12    10    1
     2    13    10    1
     3     8     6    1
     4    10     2    1
     5    10    11    1
     6     7     6    1
     7     6     1    1
     8     6     9    1
     9     2     1    2
    10     2     3    1
    11    15    14    1
    12     1     5    1
    13     3    14    1
    14     3     4    1
    15    14    16    1
    16    14    17    1
    17     5     4    1
    18     5    22    1
    19     4    18    1
    20    24    22    1
    21    22    23    1
    22    22    25    1
    23    20    18    1
    24    18    21    1
    25    18    19    1
