@<TRIPOS>MOLECULE
1,2,3,4,5
 25 25 0 0 0
SMALL
GASTEIGER

@<TRIPOS>ATOM
      1 C          -0.7541    2.4878   -6.5321 C.2     1  UNL1       -0.0584
      2 C           0.2404    1.7579   -5.8504 C.2     1  UNL1       -0.0477
      3 C           0.5088    0.5530   -6.5974 C.2     1  UNL1       -0.0477
      4 C          -0.2892    0.5731   -7.7482 C.2     1  UNL1       -0.0584
      5 C          -1.0384    1.8160   -7.7572 C.3     1  UNL1        0.0231
      6 C          -1.4616    3.7130   -6.0377 C.3     1  UNL1       -0.0424
      7 H          -0.8551    4.2559   -5.3153 H       1  UNL1        0.0275
      8 H          -2.3993    3.4327   -5.5514 H       1  UNL1        0.0275
      9 H          -1.6945    4.3856   -6.8614 H       1  UNL1        0.0275
     10 C           0.6941    2.0226   -4.4463 C.3     1  UNL1       -0.0395
     11 H          -0.0216    1.5913   -3.7411 H       1  UNL1        0.0278
     12 H           0.7594    3.0916   -4.2458 H       1  UNL1        0.0278
     13 H           1.6694    1.5824   -4.2453 H       1  UNL1        0.0278
     14 C           1.2798   -0.6347   -6.1003 C.3     1  UNL1       -0.0395
     15 H           1.8122   -1.1308   -6.9121 H       1  UNL1        0.0278
     16 H           0.5934   -1.3637   -5.6602 H       1  UNL1        0.0278
     17 H           2.0016   -0.3526   -5.3361 H       1  UNL1        0.0278
     18 C          -0.5208   -0.5926   -8.6603 C.3     1  UNL1       -0.0424
     19 H           0.3899   -1.1719   -8.7999 H       1  UNL1        0.0275
     20 H          -0.8740   -0.2700   -9.6362 H       1  UNL1        0.0275
     21 H          -1.2754   -1.2524   -8.2242 H       1  UNL1        0.0275
     22 C          -2.2560    2.0900   -8.5936 C.3     1  UNL1       -0.0510
     23 H          -3.1556    1.7878   -8.0512 H       1  UNL1        0.0242
     24 H          -2.2222    1.5386   -9.5287 H       1  UNL1        0.0242
     25 H          -2.3413    3.1514   -8.8218 H       1  UNL1        0.0242
@<TRIPOS>BOND
     1    20    18    1
     2    24    22    1
     3    25    22    1
     4    19    18    1
     5    18    21    1
     6    18     4    1
     7    22    23    1
     8    22     5    1
     9     5     4    1
    10     5     1    1
    11     4     3    2
    12    15    14    1
    13     9     6    1
    14     3    14    1
    15     3     2    1
    16     1     6    1
    17     1     2    2
    18    14    16    1
    19    14    17    1
    20     6     8    1
    21     6     7    1
    22     2    10    1
    23    10    12    1
    24    10    13    1
    25    10    11    1
