@<TRIPOS>MOLECULE
5,10,19,20,21
 25 25 0 0 0
SMALL
GASTEIGER

@<TRIPOS>ATOM
      1 C          15.3485    2.1001    4.3603 C.3     1  UNL1       -0.0430
      2 H          15.7281    1.2139    3.8540 H       1  UNL1        0.0275
      3 H          15.6538    2.0484    5.4048 H       1  UNL1        0.0275
      4 H          15.8234    2.9765    3.9109 H       1  UNL1        0.0275
      5 C          13.8564    2.2029    4.2324 C.2     1  UNL1       -0.0658
      6 C          13.4084    3.6474    6.3462 C.3     1  UNL1       -0.0430
      7 H          14.3089    3.2346    6.7974 H       1  UNL1        0.0275
      8 H          12.6193    3.6616    7.0950 H       1  UNL1        0.0275
      9 H          13.6227    4.6785    6.0524 H       1  UNL1        0.0275
     10 C          11.6881    2.9316    4.5353 C.3     1  UNL1        0.0052
     11 C          10.5707    3.8043    5.0229 C.3     1  UNL1       -0.0545
     12 H           9.6072    3.4600    4.6490 H       1  UNL1        0.0239
     13 H          10.7228    4.8284    4.6699 H       1  UNL1        0.0239
     14 H          10.5444    3.8182    6.1107 H       1  UNL1        0.0239
     15 C          10.7131    2.4046    2.1929 C.3     1  UNL1       -0.0574
     16 H           9.7132    2.3346    2.6204 H       1  UNL1        0.0236
     17 H          10.8247    1.6066    1.4627 H       1  UNL1        0.0236
     18 H          10.7926    3.3609    1.6683 H       1  UNL1        0.0236
     19 C          13.1129    1.8812    3.0593 C.3     1  UNL1        0.0052
     20 C          12.9912    2.8644    5.1377 C.2     1  UNL1       -0.0658
     21 C          11.7665    2.3203    3.2586 C.3     1  UNL1       -0.0053
     22 C          13.7324    1.5813    1.7293 C.3     1  UNL1       -0.0545
     23 H          13.9855    2.5266    1.2398 H       1  UNL1        0.0239
     24 H          13.0551    1.0378    1.0766 H       1  UNL1        0.0239
     25 H          14.6462    1.0034    1.8359 H       1  UNL1        0.0239
@<TRIPOS>BOND
     1    24    22    1
     2    23    22    1
     3    17    15    1
     4    18    15    1
     5    22    25    1
     6    22    19    1
     7    15    16    1
     8    15    21    1
     9    19    21    1
    10    19     5    1
    11    21    10    1
    12     2     1    1
    13     4     1    1
    14     5     1    1
    15     5    20    2
    16     1     3    1
    17    10    11    1
    18    10    20    1
    19    12    11    1
    20    13    11    1
    21    11    14    1
    22    20     6    1
    23     9     6    1
    24     6     7    1
    25     6     8    1
