@<TRIPOS>MOLECULE
3,4,5,6,7
 33 33 0 0 0
SMALL
GASTEIGER

@<TRIPOS>ATOM
      1 SI         10.4540    8.3349    6.6984 Si      1  UNL1        0.0000
      2 N          10.5261    7.2736    8.0611 N.3     1  UNL1        0.0000
      3 C          12.0960    8.1371    5.7845 C.2     1  UNL1        0.0000
      4 C          12.9956    9.1570    5.3945 C.3     1  UNL1        0.0000
      5 C          14.0953    8.5701    4.7229 C.3     1  UNL1        0.0000
      6 C          13.8645    7.1680    4.6755 C.3     1  UNL1        0.0000
      7 C          12.6408    6.9188    5.3408 C.2     1  UNL1        0.0000
      8 C          11.3038    7.4111    9.2808 C.3     1  UNL1        0.0000
      9 C          11.4564    6.0170    9.9016 C.3     1  UNL1        0.0000
     10 C          12.6857    7.9728    8.9574 C.3     1  UNL1        0.0000
     11 C          10.5875    8.3391   10.2715 C.3     1  UNL1        0.0000
     12 C          10.1790   10.1998    7.0288 C.3     1  UNL1        0.0000
     13 C           9.0152    7.6526    5.6539 C.3     1  UNL1        0.0000
     14 H           9.6668    6.7810    8.2547 H       1  UNL1        0.0000
     15 H          12.9292   10.2000    5.6821 H       1  UNL1        0.0000
     16 H          15.0211    9.0672    4.4558 H       1  UNL1        0.0000
     17 H          14.5887    6.4219    4.3673 H       1  UNL1        0.0000
     18 H          12.2332    5.9380    5.5524 H       1  UNL1        0.0000
     19 H          10.4821    5.6044   10.1558 H       1  UNL1        0.0000
     20 H          12.0571    6.0642   10.8061 H       1  UNL1        0.0000
     21 H          11.9400    5.3477    9.1944 H       1  UNL1        0.0000
     22 H          12.6054    8.9795    8.5581 H       1  UNL1        0.0000
     23 H          13.1820    7.3465    8.2212 H       1  UNL1        0.0000
     24 H          13.2944    8.0049    9.8576 H       1  UNL1        0.0000
     25 H           9.6011    7.9465   10.5109 H       1  UNL1        0.0000
     26 H          10.4667    9.3264    9.8345 H       1  UNL1        0.0000
     27 H          11.1571    8.4292   11.1930 H       1  UNL1        0.0000
     28 H          10.9784   10.6353    7.6229 H       1  UNL1        0.0000
     29 H           9.2503   10.3557    7.5702 H       1  UNL1        0.0000
     30 H          10.1131   10.7629    6.1015 H       1  UNL1        0.0000
     31 H           9.1484    6.5969    5.4326 H       1  UNL1        0.0000
     32 H           8.9286    8.1799    4.7070 H       1  UNL1        0.0000
     33 H           8.0674    7.7626    6.1722 H       1  UNL1        0.0000
@<TRIPOS>BOND
     1    17     6    1
     2    16     5    1
     3     6     5    1
     4     6     7    1
     5    32    13    1
     6     5     4    1
     7     7    18    1
     8     7     3    2
     9     4    15    1
    10     4     3    1
    11    31    13    1
    12    13    33    1
    13    13     1    1
    14     3     1    1
    15    30    12    1
    16     1    12    1
    17     1     2    1
    18    12    29    1
    19    12    28    1
    20     2    14    1
    21     2     8    1
    22    23    10    1
    23    22    10    1
    24    10     8    1
    25    10    24    1
    26    21     9    1
    27     8     9    1
    28     8    11    1
    29    26    11    1
    30     9    19    1
    31     9    20    1
    32    11    25    1
    33    11    27    1
