@<TRIPOS>MOLECULE
1,3,5,7,9
 10 10 0 0 0
SMALL
GASTEIGER

@<TRIPOS>ATOM
      1 C           1.3377    4.2138    1.9470 C.3     1  UNL1        0.0054
      2 H           0.9670    5.1682    1.5897 H       1  UNL1        0.0394
      3 C           0.5342    3.0862    2.2516 C.2     1  UNL1       -0.0763
      4 H          -0.5361    3.0155    2.1088 H       1  UNL1        0.0578
      5 C           1.3270    2.1665    2.9652 C.2     1  UNL1       -0.0654
      6 H           0.9737    1.2569    3.4352 H       1  UNL1        0.0615
      7 C           2.6164    2.7216    3.1156 C.2     1  UNL1       -0.0654
      8 H           3.4124    2.3098    3.7239 H       1  UNL1        0.0615
      9 C           2.6237    3.9886    2.4968 C.2     1  UNL1       -0.0763
     10 H           3.4163    4.7214    2.5738 H       1  UNL1        0.0578
@<TRIPOS>BOND
     1     2     1    1
     2     1     3    1
     3     1     9    1
     4     4     3    1
     5     3     5    2
     6     9    10    1
     7     9     7    2
     8     5     7    1
     9     5     6    1
    10     7     8    1
