@<TRIPOS>MOLECULE
1,2,3,4,5
 10 10 0 0 0
SMALL
GASTEIGER

@<TRIPOS>ATOM
      1 C           2.5229    2.5997    6.2268 C.2     1  UNL1       -0.0654
      2 C           3.0137    1.4032    5.6572 C.2     1  UNL1       -0.0654
      3 C           2.1067    0.3701    5.9648 C.2     1  UNL1       -0.0763
      4 C           1.0559    0.9218    6.7340 C.3     1  UNL1        0.0054
      5 C           1.3135    2.3033    6.8933 C.2     1  UNL1       -0.0763
      6 H           0.7742    2.9757    7.5483 H       1  UNL1        0.0578
      7 H           0.2862    0.3587    7.2470 H       1  UNL1        0.0394
      8 H           3.9977    1.2652    5.2267 H       1  UNL1        0.0615
      9 H           3.0805    3.5235    6.3248 H       1  UNL1        0.0615
     10 H           2.2652   -0.6845    5.7775 H       1  UNL1        0.0578
@<TRIPOS>BOND
     1     8     2    1
     2     2     3    2
     3     2     1    1
     4    10     3    1
     5     3     4    1
     6     1     9    1
     7     1     5    2
     8     4     5    1
     9     4     7    1
    10     5     6    1
