@<TRIPOS>MOLECULE
1,3,5,7,9
 10 10 0 0 0
SMALL
GASTEIGER

@<TRIPOS>ATOM
      1 C           2.6710    5.7264    1.7626 C.3     1  UNL1       -0.0127
      2 H           2.8438    5.5509    0.7077 H       1  UNL1        0.0352
      3 C           3.6716    5.8996    2.7436 C.2     1  UNL1       -0.0837
      4 H           4.7393    5.8854    2.5643 H       1  UNL1        0.0572
      5 C           3.0484    6.3206    3.9314 C.2     1  UNL1       -0.0837
      6 H           3.5558    6.6659    4.8217 H       1  UNL1        0.0572
      7 C           1.6603    6.3739    3.7097 C.3     1  UNL1       -0.0127
      8 H           0.9251    6.7709    4.3999 H       1  UNL1        0.0352
      9 C           1.4277    6.0371    2.3550 C.3     1  UNL1       -0.0235
     10 H           0.4917    6.1642    1.8309 H       1  UNL1        0.0315
@<TRIPOS>BOND
     1     2     1    1
     2     1     9    1
     3     1     3    1
     4    10     9    1
     5     9     7    1
     6     4     3    1
     7     3     5    2
     8     7     5    1
     9     7     8    1
    10     5     6    1
