@<TRIPOS>MOLECULE
1,3,5,7,9
 10 10 0 0 0
SMALL
GASTEIGER

@<TRIPOS>ATOM
      1 C           2.3800    2.8400    5.7306 C.3     1  UNL1       -0.0127
      2 H           1.5439    2.5915    6.3703 H       1  UNL1        0.0352
      3 C           3.0080    1.9729    4.8051 C.3     1  UNL1       -0.0235
      4 H           2.7357    0.9423    4.6162 H       1  UNL1        0.0315
      5 C           4.1879    2.6062    4.3504 C.3     1  UNL1       -0.0127
      6 H           4.9668    2.1394    3.7639 H       1  UNL1        0.0352
      7 C           4.2905    3.8476    5.0029 C.2     1  UNL1       -0.0837
      8 H           5.1455    4.5095    4.9592 H       1  UNL1        0.0572
      9 C           3.1707    4.0003    5.8413 C.2     1  UNL1       -0.0837
     10 H           3.0124    4.7956    6.5592 H       1  UNL1        0.0572
@<TRIPOS>BOND
     1     6     5    1
     2     5     3    1
     3     5     7    1
     4     4     3    1
     5     3     1    1
     6     8     7    1
     7     7     9    2
     8     1     9    1
     9     1     2    1
    10     9    10    1
