@<TRIPOS>MOLECULE
1,3,5,7,9
 10 10 0 0 0
SMALL
GASTEIGER

@<TRIPOS>ATOM
      1 C          -0.8884    5.3772    8.3548 C.2     1  UNL1       -0.0654
      2 H          -1.9294    5.6380    8.4927 H       1  UNL1        0.0615
      3 C          -0.3064    4.1196    8.6060 C.2     1  UNL1       -0.0763
      4 H          -0.8215    3.2541    9.0043 H       1  UNL1        0.0578
      5 C           1.1039    4.2381    8.4557 C.3     1  UNL1        0.0054
      6 H           1.8324    3.4832    8.7232 H       1  UNL1        0.0394
      7 C           1.3874    5.5701    8.1003 C.2     1  UNL1       -0.0763
      8 H           2.3716    6.0176    8.0488 H       1  UNL1        0.0578
      9 C           0.1510    6.2770    8.0359 C.2     1  UNL1       -0.0654
     10 H           0.0396    7.3469    7.9290 H       1  UNL1        0.0615
@<TRIPOS>BOND
     1    10     9    1
     2     9     7    2
     3     9     1    1
     4     8     7    1
     5     7     5    1
     6     1     2    1
     7     1     3    2
     8     5     3    1
     9     5     6    1
    10     3     4    1
