@<TRIPOS>MOLECULE
1,2,4,6,8
 54 55 0 0 0
SMALL
GASTEIGER

@<TRIPOS>ATOM
      1 C           3.9115    8.9383    3.6087 C.3     1  UNL1        0.0000
      2 C           3.2499    9.7902    2.6804 C.3     1  UNL1        0.0000
      3 H           3.3784   10.8604    2.6056 H       1  UNL1        0.0000
      4 C           2.2419    9.0289    2.0288 C.3     1  UNL1        0.0000
      5 H           1.4691    9.4291    1.3838 H       1  UNL1        0.0000
      6 C           2.2901    7.7088    2.5372 C.2     1  UNL1        0.0000
      7 H           1.5771    6.9231    2.3222 H       1  UNL1        0.0000
      8 C           3.3216    7.6437    3.4983 C.2     1  UNL1        0.0000
      9 H           3.5406    6.8053    4.1452 H       1  UNL1        0.0000
     10 C           5.1236    9.2576    4.3495 C.3     1  UNL1        0.0000
     11 O           5.9100   10.1509    3.6778 O.3     1  UNL1        0.0000
     12 C           5.4989    8.6638    5.5131 C.2     1  UNL1        0.0000
     13 C           6.8618    8.4559    5.9993 C.2     1  UNL1        0.0000
     14 C           8.1099    8.6786    5.2078 C.3     1  UNL1        0.0000
     15 H           8.8058    9.3176    5.7501 H       1  UNL1        0.0000
     16 H           7.8926    9.1378    4.2504 H       1  UNL1        0.0000
     17 H           8.6102    7.7259    5.0257 H       1  UNL1        0.0000
     18 C           6.7781    7.7867    7.1778 C.2     1  UNL1        0.0000
     19 C           7.9001    7.2753    8.0130 C.3     1  UNL1        0.0000
     20 H           7.8854    6.1851    8.0456 H       1  UNL1        0.0000
     21 H           7.8080    7.6375    9.0370 H       1  UNL1        0.0000
     22 H           8.8580    7.5960    7.6135 H       1  UNL1        0.0000
     23 C           5.3768    7.6137    7.5290 C.2     1  UNL1        0.0000
     24 C           4.9316    7.0018    8.8116 C.3     1  UNL1        0.0000
     25 H           5.2500    7.6144    9.6560 H       1  UNL1        0.0000
     26 H           5.3784    6.0152    8.9335 H       1  UNL1        0.0000
     27 H           3.8505    6.8988    8.8441 H       1  UNL1        0.0000
     28 C           4.6040    8.0916    6.5190 C.3     1  UNL1        0.0000
     29 C           3.1153    8.2426    6.5561 C.3     1  UNL1        0.0000
     30 H           2.6094    7.2992    6.3453 H       1  UNL1        0.0000
     31 H           2.7769    8.9800    5.8329 H       1  UNL1        0.0000
     32 H           2.7997    8.5694    7.5466 H       1  UNL1        0.0000
     33 SI          6.1535   11.7273    4.1284 Si      1  UNL1        0.0000
     34 C           4.4741   12.5349    4.5677 C.3     1  UNL1        0.0000
     35 H           3.9094   12.8468    3.6936 H       1  UNL1        0.0000
     36 H           4.6174   13.4178    5.1817 H       1  UNL1        0.0000
     37 H           3.8528   11.8455    5.1344 H       1  UNL1        0.0000
     38 C           7.2387   11.8880    5.6849 C.3     1  UNL1        0.0000
     39 H           7.1889   12.8936    6.0901 H       1  UNL1        0.0000
     40 H           8.2820   11.6703    5.4825 H       1  UNL1        0.0000
     41 H           6.9067   11.2024    6.4598 H       1  UNL1        0.0000
     42 C           6.9505   12.4985    2.5632 C.3     1  UNL1        0.0000
     43 C           6.0584   12.3018    1.3346 C.3     1  UNL1        0.0000
     44 H           5.1072   12.8166    1.4569 H       1  UNL1        0.0000
     45 H           5.8617   11.2435    1.1628 H       1  UNL1        0.0000
     46 H           6.5443   12.7033    0.4462 H       1  UNL1        0.0000
     47 C           7.1419   13.9976    2.7967 C.3     1  UNL1        0.0000
     48 H           7.7895   14.1739    3.6518 H       1  UNL1        0.0000
     49 H           6.1898   14.4875    2.9852 H       1  UNL1        0.0000
     50 H           7.5971   14.4624    1.9231 H       1  UNL1        0.0000
     51 C           8.3172   11.8717    2.2797 C.3     1  UNL1        0.0000
     52 H           8.9972   12.0305    3.1133 H       1  UNL1        0.0000
     53 H           8.7600   12.3211    1.3915 H       1  UNL1        0.0000
     54 H           8.2244   10.8035    2.1071 H       1  UNL1        0.0000
@<TRIPOS>BOND
     1    46    43    1
     2    45    43    1
     3    43    44    1
     4    43    42    1
     5     5     4    1
     6    53    51    1
     7    50    47    1
     8     4     6    1
     9     4     2    1
    10    54    51    1
    11    51    42    1
    12    51    52    1
    13     7     6    1
    14     6     8    2
    15    42    47    1
    16    42    33    1
    17     3     2    1
    18     2     1    1
    19    47    49    1
    20    47    48    1
    21     8     1    1
    22     8     9    1
    23     1    10    1
    24    11    33    1
    25    11    10    1
    26    35    34    1
    27    33    34    1
    28    33    38    1
    29    16    14    1
    30    10    12    1
    31    34    37    1
    32    34    36    1
    33    17    14    1
    34    14    15    1
    35    14    13    1
    36    40    38    1
    37    12    13    2
    38    12    28    1
    39    38    39    1
    40    38    41    1
    41    31    29    1
    42    13    18    1
    43    30    29    1
    44    28    29    1
    45    28    23    1
    46    29    32    1
    47    18    23    2
    48    18    19    1
    49    23    24    1
    50    22    19    1
    51    19    20    1
    52    19    21    1
    53    24    27    1
    54    24    26    1
    55    24    25    1
