@<TRIPOS>MOLECULE
2,3,5,7,9
 22 22 0 0 0
SMALL
GASTEIGER

@<TRIPOS>ATOM
      1 SI          6.9646    0.9597    2.7498 Si      1  UNL1        0.0000
      2 C           6.0627    2.6021    2.9629 C.3     1  UNL1        0.0000
      3 C           6.6149    3.9021    2.8884 C.2     1  UNL1        0.0000
      4 H           7.6348    4.1277    2.6024 H       1  UNL1        0.0000
      5 C           5.6111    4.8442    3.1315 C.2     1  UNL1        0.0000
      6 H           5.7089    5.9173    3.0477 H       1  UNL1        0.0000
      7 C           4.4109    4.1492    3.3901 C.3     1  UNL1        0.0000
      8 H           3.4279    4.5942    3.4844 H       1  UNL1        0.0000
      9 C           4.6863    2.7647    3.2906 C.3     1  UNL1        0.0000
     10 H           3.9419    1.9755    3.2760 H       1  UNL1        0.0000
     11 C           6.8242   -0.0154    4.3907 C.3     1  UNL1        0.0000
     12 H           7.1914   -1.0324    4.2885 H       1  UNL1        0.0000
     13 H           5.7902   -0.0698    4.7300 H       1  UNL1        0.0000
     14 H           7.3994    0.4686    5.1802 H       1  UNL1        0.0000
     15 C           8.7967    1.2944    2.3333 C.3     1  UNL1        0.0000
     16 H           8.9021    1.8539    1.4081 H       1  UNL1        0.0000
     17 H           9.3387    0.3618    2.2135 H       1  UNL1        0.0000
     18 H           9.2847    1.8577    3.1242 H       1  UNL1        0.0000
     19 C           6.1300   -0.0217    1.3404 C.3     1  UNL1        0.0000
     20 H           6.1591    0.5227    0.4020 H       1  UNL1        0.0000
     21 H           5.0908   -0.2411    1.5628 H       1  UNL1        0.0000
     22 H           6.6402   -0.9665    1.1883 H       1  UNL1        0.0000
@<TRIPOS>BOND
     1    20    19    1
     2    22    19    1
     3    19    21    1
     4    19     1    1
     5    16    15    1
     6    17    15    1
     7    15     1    1
     8    15    18    1
     9     4     3    1
    10     1     2    1
    11     1    11    1
    12     3     2    1
    13     3     5    2
    14     2     9    1
    15     6     5    1
    16     5     7    1
    17    10     9    1
    18     9     7    1
    19     7     8    1
    20    12    11    1
    21    11    13    1
    22    11    14    1
