@<TRIPOS>MOLECULE
1,2,3,4,5
 25 25 0 0 0
SMALL
GASTEIGER

@<TRIPOS>ATOM
      1 C           2.7824   -1.4613    5.9599 C.2     1  UNL1       -0.0477
      2 C           1.8611   -0.7022    6.7444 C.2     1  UNL1       -0.0584
      3 C           2.5656    0.4220    7.3066 C.3     1  UNL1        0.0231
      4 C           3.9104    0.3586    6.8507 C.2     1  UNL1       -0.0584
      5 C           4.0394   -0.8038    6.0056 C.2     1  UNL1       -0.0477
      6 C           2.5289   -2.8398    5.4269 C.3     1  UNL1       -0.0395
      7 H           2.8222   -3.5772    6.1785 H       1  UNL1        0.0278
      8 H           3.1004   -3.0383    4.5220 H       1  UNL1        0.0278
      9 H           1.4745   -2.9907    5.2045 H       1  UNL1        0.0278
     10 C           0.5142   -1.1822    7.1994 C.3     1  UNL1       -0.0424
     11 H           0.0027   -1.7441    6.4198 H       1  UNL1        0.0275
     12 H          -0.1225   -0.3510    7.4954 H       1  UNL1        0.0275
     13 H           0.6410   -1.8395    8.0631 H       1  UNL1        0.0275
     14 C           2.0659    1.2895    8.4233 C.3     1  UNL1       -0.0510
     15 H           2.2153    0.7773    9.3777 H       1  UNL1        0.0242
     16 H           1.0051    1.5072    8.3184 H       1  UNL1        0.0242
     17 H           2.6032    2.2346    8.4558 H       1  UNL1        0.0242
     18 C           5.0521    1.1288    7.4501 C.3     1  UNL1       -0.0424
     19 H           4.8647    2.2018    7.4468 H       1  UNL1        0.0275
     20 H           5.9821    0.9412    6.9171 H       1  UNL1        0.0275
     21 H           5.1909    0.8144    8.4875 H       1  UNL1        0.0275
     22 C           5.3414   -1.3996    5.5596 C.3     1  UNL1       -0.0395
     23 H           5.1935   -2.1277    4.7637 H       1  UNL1        0.0278
     24 H           5.8102   -1.9140    6.4023 H       1  UNL1        0.0278
     25 H           6.0373   -0.6411    5.2027 H       1  UNL1        0.0278
@<TRIPOS>BOND
     1     8     6    1
     2    23    22    1
     3    25    22    1
     4     9     6    1
     5     6     1    1
     6     6     7    1
     7    22     5    1
     8    22    24    1
     9     1     5    1
    10     1     2    2
    11     5     4    2
    12    11    10    1
    13     2    10    1
    14     2     3    1
    15     4     3    1
    16     4    18    1
    17    20    18    1
    18    10    12    1
    19    10    13    1
    20     3    14    1
    21    19    18    1
    22    18    21    1
    23    16    14    1
    24    14    17    1
    25    14    15    1
