@<TRIPOS>MOLECULE
2,3,4,5,6
 31 31 0 0 0
SMALL
GASTEIGER

@<TRIPOS>ATOM
      1 SI         26.9199    2.5099   11.8233 Si      1  UNL1        0.0000
      2 C          30.9185    1.7425   11.0503 C.2     1  UNL1        0.0000
      3 C          29.5734    1.6453   11.1559 C.2     1  UNL1        0.0000
      4 C          28.7816    2.3728   12.1221 C.3     1  UNL1        0.0000
      5 C          29.5207    3.3360   12.8965 C.3     1  UNL1        0.0000
      6 C          30.8893    3.3789   12.9076 C.3     1  UNL1        0.0000
      7 C          31.7477    2.7407   11.8269 C.3     1  UNL1        0.0000
      8 C          32.9960    2.0425   12.4044 C.3     1  UNL1        0.0000
      9 C          32.2255    3.8585   10.8714 C.3     1  UNL1        0.0000
     10 C          26.6574    2.9285    9.9750 C.3     1  UNL1        0.0000
     11 C          26.1165    0.8014   12.1478 C.3     1  UNL1        0.0000
     12 C          26.1323    3.8983   12.8601 C.3     1  UNL1        0.0000
     13 H          31.4433    1.2175   10.2586 H       1  UNL1        0.0000
     14 H          29.0421    1.0049   10.4555 H       1  UNL1        0.0000
     15 H          28.9662    4.0091   13.5544 H       1  UNL1        0.0000
     16 H          31.3930    4.1355   13.5074 H       1  UNL1        0.0000
     17 H          33.6803    1.7856   11.5963 H       1  UNL1        0.0000
     18 H          32.7343    1.1150   12.9295 H       1  UNL1        0.0000
     19 H          33.5218    2.7011   13.0948 H       1  UNL1        0.0000
     20 H          32.7925    3.4373   10.0438 H       1  UNL1        0.0000
     21 H          31.3690    4.3943   10.4669 H       1  UNL1        0.0000
     22 H          32.8595    4.5646   11.4028 H       1  UNL1        0.0000
     23 H          27.1255    3.8710    9.7091 H       1  UNL1        0.0000
     24 H          25.5986    3.0160    9.7570 H       1  UNL1        0.0000
     25 H          27.0620    2.1659    9.3172 H       1  UNL1        0.0000
     26 H          26.5051    0.0372   11.4787 H       1  UNL1        0.0000
     27 H          26.2528    0.4583   13.1698 H       1  UNL1        0.0000
     28 H          25.0468    0.8588   11.9737 H       1  UNL1        0.0000
     29 H          25.0826    3.9899   12.6021 H       1  UNL1        0.0000
     30 H          26.1858    3.7130   13.9271 H       1  UNL1        0.0000
     31 H          26.5988    4.8586   12.6609 H       1  UNL1        0.0000
@<TRIPOS>BOND
     1    25    10    1
     2    23    10    1
     3    24    10    1
     4    10     1    1
     5    20     9    1
     6    13     2    1
     7    14     3    1
     8    21     9    1
     9     9    22    1
    10     9     7    1
    11     2     3    2
    12     2     7    1
    13     3     4    1
    14    26    11    1
    15    17     8    1
    16     1     4    1
    17     1    11    1
    18     1    12    1
    19     7     8    1
    20     7     6    1
    21    28    11    1
    22     4     5    1
    23    11    27    1
    24     8    18    1
    25     8    19    1
    26    29    12    1
    27    31    12    1
    28    12    30    1
    29     5     6    1
    30     5    15    1
    31     6    16    1
