@<TRIPOS>MOLECULE
1,2,3,4,5
 10 10 0 0 0
SMALL
GASTEIGER

@<TRIPOS>ATOM
      1 C          30.7458   -1.0105   12.5220 C.2     1  UNL1       -0.0763
      2 C          31.1581   -1.1043   13.8693 C.3     1  UNL1        0.0054
      3 C          30.0017   -1.2243   14.6732 C.2     1  UNL1       -0.0763
      4 C          28.8762   -1.2112   13.8218 C.2     1  UNL1       -0.0654
      5 C          29.3328   -1.0753   12.4933 C.2     1  UNL1       -0.0654
      6 H          31.3987   -1.0552   11.6583 H       1  UNL1        0.0578
      7 H          32.1803   -1.2046   14.2190 H       1  UNL1        0.0394
      8 H          29.9872   -1.3864   15.7464 H       1  UNL1        0.0578
      9 H          27.8537   -1.4006   14.1264 H       1  UNL1        0.0615
     10 H          28.7233   -1.1839   11.6056 H       1  UNL1        0.0615
@<TRIPOS>BOND
     1    10     5    1
     2     6     1    1
     3     5     1    2
     4     5     4    1
     5     1     2    1
     6     4     9    1
     7     4     3    2
     8     2     7    1
     9     2     3    1
    10     3     8    1
