@<TRIPOS>MOLECULE
1,2,3,4,5
 10 10 0 0 0
SMALL
GASTEIGER

@<TRIPOS>ATOM
      1 C          -1.0681    4.9043    4.4104 C.2     1  UNL1       -0.0763
      2 C          -2.3131    4.3898    4.8111 C.2     1  UNL1       -0.0654
      3 C          -3.1675    4.3904    3.6956 C.2     1  UNL1       -0.0654
      4 C          -2.4563    4.9053    2.5983 C.2     1  UNL1       -0.0763
      5 C          -1.1551    5.2327    3.0394 C.3     1  UNL1        0.0054
      6 H          -0.2489    5.1527    5.0743 H       1  UNL1        0.0578
      7 H          -2.5988    4.1595    5.8286 H       1  UNL1        0.0615
      8 H          -4.2245    4.1608    3.7062 H       1  UNL1        0.0615
      9 H          -2.8838    5.1552    1.6349 H       1  UNL1        0.0578
     10 H          -0.4039    5.7569    2.4638 H       1  UNL1        0.0394
@<TRIPOS>BOND
     1     9     4    1
     2    10     5    1
     3     4     5    1
     4     4     3    2
     5     5     1    1
     6     3     8    1
     7     3     2    1
     8     1     2    2
     9     1     6    1
    10     2     7    1
