@<TRIPOS>MOLECULE
1,2,3,4,5
 10 10 0 0 0
SMALL
GASTEIGER

@<TRIPOS>ATOM
      1 C          -1.0681    0.9142    4.4104 C.2     1  UNL1       -0.0763
      2 C          -2.3131    1.4287    4.8111 C.2     1  UNL1       -0.0654
      3 C          -3.1675    1.4281    3.6956 C.2     1  UNL1       -0.0654
      4 C          -2.4563    0.9132    2.5983 C.2     1  UNL1       -0.0763
      5 C          -1.1550    0.5858    3.0394 C.3     1  UNL1        0.0054
      6 H          -0.2489    0.6658    5.0743 H       1  UNL1        0.0578
      7 H          -2.5988    1.6590    5.8286 H       1  UNL1        0.0615
      8 H          -4.2245    1.6577    3.7062 H       1  UNL1        0.0615
      9 H          -2.8838    0.6633    1.6349 H       1  UNL1        0.0578
     10 H          -0.4039    0.0616    2.4638 H       1  UNL1        0.0394
@<TRIPOS>BOND
     1     9     4    1
     2    10     5    1
     3     4     5    1
     4     4     3    2
     5     5     1    1
     6     3     8    1
     7     3     2    1
     8     1     2    2
     9     1     6    1
    10     2     7    1
