@<TRIPOS>MOLECULE
1,3,5,7,9
 10 10 0 0 0
SMALL
GASTEIGER

@<TRIPOS>ATOM
      1 C          -5.7072   -1.6086   -1.5677 C.2     1  UNL1       -0.0654
      2 H          -6.4383   -2.3613   -1.2966 H       1  UNL1        0.0615
      3 C          -5.7512   -0.2505   -1.1996 C.2     1  UNL1       -0.0654
      4 H          -6.4946    0.2099   -0.5613 H       1  UNL1        0.0615
      5 C          -4.5687    0.3677   -1.6516 C.2     1  UNL1       -0.0763
      6 H          -4.2476    1.3710   -1.3898 H       1  UNL1        0.0578
      7 C          -3.7873   -0.6178   -2.2820 C.3     1  UNL1        0.0054
      8 H          -2.7604   -0.5036   -2.6127 H       1  UNL1        0.0394
      9 C          -4.4921   -1.8387   -2.2173 C.2     1  UNL1       -0.0763
     10 H          -4.1170   -2.8014   -2.5471 H       1  UNL1        0.0578
@<TRIPOS>BOND
     1     8     7    1
     2    10     9    1
     3     7     9    1
     4     7     5    1
     5     9     1    2
     6     5     6    1
     7     5     3    2
     8     1     2    1
     9     1     3    1
    10     3     4    1
