@<TRIPOS>MOLECULE
1,2,3,4,5
 10 10 0 0 0
SMALL
GASTEIGER

@<TRIPOS>ATOM
      1 C           8.1535    1.5945    2.5388 C.3     1  UNL1        0.0054
      2 C           8.6772    0.6183    1.6519 C.2     1  UNL1       -0.0763
      3 C           7.7724   -0.4603    1.6015 C.2     1  UNL1       -0.0654
      4 C           6.6879   -0.1640    2.4655 C.2     1  UNL1       -0.0654
      5 C           6.9263    1.0966    3.0465 C.2     1  UNL1       -0.0763
      6 H           8.6992    2.4427    2.9330 H       1  UNL1        0.0394
      7 H           9.6718    0.6316    1.2192 H       1  UNL1        0.0578
      8 H           7.9523   -1.4195    1.1269 H       1  UNL1        0.0615
      9 H           5.9070   -0.8596    2.7541 H       1  UNL1        0.0615
     10 H           6.3553    1.5389    3.8555 H       1  UNL1        0.0578
@<TRIPOS>BOND
     1     8     3    1
     2     7     2    1
     3     3     2    2
     4     3     4    1
     5     2     1    1
     6     4     9    1
     7     4     5    2
     8     1     6    1
     9     1     5    1
    10     5    10    1
