@<TRIPOS>MOLECULE
1,3,5,7,9
 10 10 0 0 0
SMALL
GASTEIGER

@<TRIPOS>ATOM
      1 C           6.7351    2.6934   11.2470 C.2     1  UNL1       -0.0763
      2 H           6.7234    1.7061   10.8028 H       1  UNL1        0.0578
      3 C           5.6450    3.2992   11.9033 C.3     1  UNL1        0.0054
      4 H           4.6494    2.8864   11.9822 H       1  UNL1        0.0394
      5 C           6.0998    4.4838   12.5110 C.2     1  UNL1       -0.0763
      6 H           5.5172    5.1261   13.1606 H       1  UNL1        0.0578
      7 C           7.4840    4.5988   12.2570 C.2     1  UNL1       -0.0654
      8 H           8.1493    5.3185   12.7187 H       1  UNL1        0.0615
      9 C           7.8797    3.4951   11.4761 C.2     1  UNL1       -0.0654
     10 H           8.9022    3.2299   11.2305 H       1  UNL1        0.0615
@<TRIPOS>BOND
     1     2     1    1
     2    10     9    1
     3     1     9    2
     4     1     3    1
     5     9     7    1
     6     3     4    1
     7     3     5    1
     8     7     5    2
     9     7     8    1
    10     5     6    1
