@<TRIPOS>MOLECULE
1,3,5,7,9
 10 10 0 0 0
SMALL
GASTEIGER

@<TRIPOS>ATOM
      1 C           7.2499   12.2082   18.9937 C.3     1  UNL1        0.0054
      2 H           8.0469   12.8038   18.5621 H       1  UNL1        0.0394
      3 C           6.9862   12.0702   20.3724 C.2     1  UNL1       -0.0763
      4 H           7.5468   12.5320   21.1722 H       1  UNL1        0.0578
      5 C           5.7549   11.3975   20.5164 C.2     1  UNL1       -0.0654
      6 H           5.2221   11.2463   21.4458 H       1  UNL1        0.0615
      7 C           5.2458   11.1397   19.2306 C.2     1  UNL1       -0.0654
      8 H           4.2666   10.7331   19.0132 H       1  UNL1        0.0615
      9 C           6.1718   11.6214   18.2857 C.2     1  UNL1       -0.0763
     10 H           6.0071   11.6778   17.2150 H       1  UNL1        0.0578
@<TRIPOS>BOND
     1    10     9    1
     2     9     1    1
     3     9     7    2
     4     2     1    1
     5     1     3    1
     6     8     7    1
     7     7     5    1
     8     3     5    2
     9     3     4    1
    10     5     6    1
