@<TRIPOS>MOLECULE
1,3,5,7,9
 10 10 0 0 0
SMALL
GASTEIGER

@<TRIPOS>ATOM
      1 C          -0.5532    2.2977    8.4215 C.2     1  UNL1       -0.0837
      2 H          -0.9224    3.1027    9.0433 H       1  UNL1        0.0572
      3 C          -0.8144    2.1215    7.0430 C.3     1  UNL1       -0.0127
      4 H          -1.4580    2.7348    6.4242 H       1  UNL1        0.0352
      5 C          -0.3089    0.8476    6.6701 C.3     1  UNL1       -0.0235
      6 H          -0.5292    0.3420    5.7424 H       1  UNL1        0.0315
      7 C           0.2557    0.2538    7.8222 C.3     1  UNL1       -0.0127
      8 H           0.6004   -0.7690    7.9044 H       1  UNL1        0.0352
      9 C           0.0762    1.1374    8.8977 C.2     1  UNL1       -0.0837
     10 H           0.3043    0.9243    9.9314 H       1  UNL1        0.0572
@<TRIPOS>BOND
     1     6     5    1
     2     4     3    1
     3     5     3    1
     4     5     7    1
     5     3     1    1
     6     7     8    1
     7     7     9    1
     8     1     9    2
     9     1     2    1
    10     9    10    1
