@<TRIPOS>MOLECULE
1,3,5,7,9
 10 10 0 0 0
SMALL
GASTEIGER

@<TRIPOS>ATOM
      1 C           7.9903    6.7855   10.1732 C.2     1  UNL1       -0.0763
      2 H           8.8720    6.8171   10.8016 H       1  UNL1        0.0578
      3 C           7.9807    6.4511    8.8077 C.2     1  UNL1       -0.0654
      4 H           8.8582    6.2101    8.2205 H       1  UNL1        0.0615
      5 C           6.6870    6.7103    8.3009 C.2     1  UNL1       -0.0654
      6 H           6.3875    6.6632    7.2613 H       1  UNL1        0.0615
      7 C           5.9088    7.2345    9.3527 C.2     1  UNL1       -0.0763
      8 H           4.9047    7.6251    9.2612 H       1  UNL1        0.0578
      9 C           6.7040    7.2611   10.5171 C.3     1  UNL1        0.0054
     10 H           6.4222    7.7050   11.4665 H       1  UNL1        0.0394
@<TRIPOS>BOND
     1     6     5    1
     2     4     3    1
     3     5     3    1
     4     5     7    2
     5     3     1    2
     6     8     7    1
     7     7     9    1
     8     1     9    1
     9     1     2    1
    10     9    10    1
