@<TRIPOS>MOLECULE
1,3,5,7,9
 10 10 0 0 0
SMALL
GASTEIGER

@<TRIPOS>ATOM
      1 C           4.0118    1.7542    7.8318 C.2     1  UNL1       -0.0763
      2 H           4.6830    1.0120    7.4265 H       1  UNL1        0.0578
      3 C           4.1141    3.1413    7.6421 C.2     1  UNL1       -0.0654
      4 H           4.8292    3.6463    7.0122 H       1  UNL1        0.0615
      5 C           3.2112    3.7662    8.5134 C.2     1  UNL1       -0.0654
      6 H           3.1619    4.8268    8.7081 H       1  UNL1        0.0615
      7 C           2.5206    2.7700    9.2310 C.2     1  UNL1       -0.0763
      8 H           1.8886    2.9452   10.0932 H       1  UNL1        0.0578
      9 C           3.0208    1.5097    8.8069 C.3     1  UNL1        0.0054
     10 H           2.8441    0.5590    9.2970 H       1  UNL1        0.0394
@<TRIPOS>BOND
     1     4     3    1
     2     2     1    1
     3     3     1    2
     4     3     5    1
     5     1     9    1
     6     5     6    1
     7     5     7    2
     8     9     7    1
     9     9    10    1
    10     7     8    1
