@<TRIPOS>MOLECULE
1,3,5,7,9
 10 10 0 0 0
SMALL
GASTEIGER

@<TRIPOS>ATOM
      1 C           9.5770    8.7142   18.5802 C.3     1  UNL1        0.0054
      2 H          10.2870    8.2419   19.2463 H       1  UNL1        0.0394
      3 C           9.6380   10.0523   18.1296 C.2     1  UNL1       -0.0763
      4 H          10.4082   10.7675   18.3864 H       1  UNL1        0.0578
      5 C           8.6591   10.2177   17.1306 C.2     1  UNL1       -0.0654
      6 H           8.5439   11.0882   16.4970 H       1  UNL1        0.0615
      7 C           7.9834    8.9943   16.9698 C.2     1  UNL1       -0.0654
      8 H           7.2558    8.7730   16.1992 H       1  UNL1        0.0615
      9 C           8.5544    8.0600   17.8585 C.2     1  UNL1       -0.0763
     10 H           8.3371    6.9985   17.8881 H       1  UNL1        0.0578
@<TRIPOS>BOND
     1     8     7    1
     2     6     5    1
     3     7     5    1
     4     7     9    2
     5     5     3    2
     6     9    10    1
     7     9     1    1
     8     3     4    1
     9     3     1    1
    10     1     2    1
