@<TRIPOS>MOLECULE
1,2,3,4,5
 25 25 0 0 0
SMALL
GASTEIGER

@<TRIPOS>ATOM
      1 C          10.5718   -4.1709   12.1994 C.2     1  UNL1       -0.0584
      2 C           9.9213   -4.1388   13.4524 C.2     1  UNL1       -0.0477
      3 C           8.5494   -3.7852   13.2484 C.2     1  UNL1       -0.0477
      4 C           8.3409   -3.6184   11.8616 C.2     1  UNL1       -0.0584
      5 C           9.6122   -3.8204   11.1973 C.3     1  UNL1        0.0231
      6 C          11.9764   -4.6265   11.9467 C.3     1  UNL1       -0.0424
      7 H          12.0208   -5.7180   11.9332 H       1  UNL1        0.0275
      8 H          12.6495   -4.2601   12.7194 H       1  UNL1        0.0275
      9 H          12.3346   -4.2572   10.9883 H       1  UNL1        0.0275
     10 C          10.4818   -4.5934   14.7609 C.3     1  UNL1       -0.0395
     11 H          10.3052   -3.8496   15.5384 H       1  UNL1        0.0278
     12 H          11.5517   -4.7675   14.6857 H       1  UNL1        0.0278
     13 H           9.9954   -5.5243   15.0624 H       1  UNL1        0.0278
     14 C           7.4971   -3.8857   14.3133 C.3     1  UNL1       -0.0395
     15 H           6.5810   -3.3765   14.0179 H       1  UNL1        0.0278
     16 H           7.8501   -3.4585   15.2529 H       1  UNL1        0.0278
     17 H           7.2532   -4.9360   14.4941 H       1  UNL1        0.0278
     18 C           7.0189   -3.4928   11.1686 C.3     1  UNL1       -0.0424
     19 H           6.6221   -4.4860   10.9453 H       1  UNL1        0.0275
     20 H           7.1173   -2.9483   10.2315 H       1  UNL1        0.0275
     21 H           6.2957   -2.9694   11.7903 H       1  UNL1        0.0275
     22 C           9.7837   -4.0440    9.7212 C.3     1  UNL1       -0.0510
     23 H          10.7942   -3.7910    9.4031 H       1  UNL1        0.0242
     24 H           9.0875   -3.4334    9.1485 H       1  UNL1        0.0242
     25 H           9.5983   -5.0933    9.4797 H       1  UNL1        0.0242
@<TRIPOS>BOND
     1    24    22    1
     2    23    22    1
     3    25    22    1
     4    22     5    1
     5    20    18    1
     6    19    18    1
     7     9     6    1
     8    18    21    1
     9    18     4    1
    10     5     4    1
    11     5     1    1
    12     4     3    2
    13     7     6    1
    14     6     1    1
    15     6     8    1
    16     1     2    2
    17     3     2    1
    18     3    14    1
    19     2    10    1
    20    15    14    1
    21    14    17    1
    22    14    16    1
    23    12    10    1
    24    10    13    1
    25    10    11    1
