@<TRIPOS>MOLECULE
1,2,3,4,5
 25 25 0 0 0
SMALL
GASTEIGER

@<TRIPOS>ATOM
      1 C           1.2770   10.4451    1.6739 C.2     1  UNL1       -0.0584
      2 C           1.8237    9.4322    0.8118 C.2     1  UNL1       -0.0477
      3 C           3.0291    8.9655    1.3988 C.2     1  UNL1       -0.0477
      4 C           3.2585    9.7067    2.5969 C.2     1  UNL1       -0.0584
      5 C           2.1963   10.6242    2.7600 C.3     1  UNL1        0.0231
      6 C           0.1835   11.4028    1.2929 C.3     1  UNL1       -0.0424
      7 H           0.5918   12.2203    0.6930 H       1  UNL1        0.0275
      8 H          -0.2881   11.8297    2.1766 H       1  UNL1        0.0275
      9 H          -0.5859   10.8997    0.7089 H       1  UNL1        0.0275
     10 C           1.3304    9.1077   -0.5656 C.3     1  UNL1       -0.0395
     11 H           0.2446    9.1689   -0.6134 H       1  UNL1        0.0278
     12 H           1.6280    8.1042   -0.8630 H       1  UNL1        0.0278
     13 H           1.7448    9.8157   -1.2875 H       1  UNL1        0.0278
     14 C           4.0452    8.1027    0.7073 C.3     1  UNL1       -0.0395
     15 H           4.6430    8.7165    0.0280 H       1  UNL1        0.0278
     16 H           3.5683    7.3189    0.1203 H       1  UNL1        0.0278
     17 H           4.7261    7.6348    1.4170 H       1  UNL1        0.0278
     18 C           4.5310    9.6860    3.3898 C.3     1  UNL1       -0.0424
     19 H           4.9028    8.6722    3.5372 H       1  UNL1        0.0275
     20 H           4.3947   10.1335    4.3716 H       1  UNL1        0.0275
     21 H           5.3029   10.2518    2.8609 H       1  UNL1        0.0275
     22 C           2.1224   11.7182    3.7813 C.3     1  UNL1       -0.0510
     23 H           2.6259   11.4322    4.7026 H       1  UNL1        0.0242
     24 H           1.0882   11.9599    4.0198 H       1  UNL1        0.0242
     25 H           2.6023   12.6210    3.3952 H       1  UNL1        0.0242
@<TRIPOS>BOND
     1    13    10    1
     2    12    10    1
     3    11    10    1
     4    10     2    1
     5    15    14    1
     6    16    14    1
     7     7     6    1
     8    14     3    1
     9    14    17    1
    10     9     6    1
    11     2     3    1
    12     2     1    2
    13     6     1    1
    14     6     8    1
    15     3     4    2
    16     1     5    1
    17     4     5    1
    18     4    18    1
    19     5    22    1
    20    21    18    1
    21    18    19    1
    22    18    20    1
    23    25    22    1
    24    22    24    1
    25    22    23    1
