@<TRIPOS>MOLECULE
2,3,4,5,6
 22 22 0 0 0
SMALL
GASTEIGER

@<TRIPOS>ATOM
      1 SI         -0.6332    8.3636   -9.2049 Si      1  UNL1        0.0000
      2 C          -0.5770    7.9117   -7.3704 C.2     1  UNL1        0.0000
      3 C          -0.7698    8.8116   -6.2955 C.3     1  UNL1        0.0000
      4 C          -0.8892    8.0817   -5.0961 C.2     1  UNL1        0.0000
      5 C          -0.8064    6.7113   -5.4186 C.2     1  UNL1        0.0000
      6 C          -0.6030    6.6067   -6.8099 C.2     1  UNL1        0.0000
      7 C          -2.2805    9.2977   -9.4671 C.3     1  UNL1        0.0000
      8 C          -0.6166    6.7801  -10.2629 C.3     1  UNL1        0.0000
      9 C           0.8098    9.5313   -9.6680 C.3     1  UNL1        0.0000
     10 H          -0.9185    9.8785   -6.4008 H       1  UNL1        0.0000
     11 H          -1.1406    8.4842   -4.1233 H       1  UNL1        0.0000
     12 H          -0.9788    5.8848   -4.7396 H       1  UNL1        0.0000
     13 H          -0.5716    5.6803   -7.3707 H       1  UNL1        0.0000
     14 H          -2.3939    9.5757  -10.5091 H       1  UNL1        0.0000
     15 H          -2.3306   10.2081   -8.8784 H       1  UNL1        0.0000
     16 H          -3.1337    8.6846   -9.1956 H       1  UNL1        0.0000
     17 H           0.2883    6.2049  -10.0938 H       1  UNL1        0.0000
     18 H          -0.6617    7.0231  -11.3196 H       1  UNL1        0.0000
     19 H          -1.4659    6.1421  -10.0371 H       1  UNL1        0.0000
     20 H           1.7642    9.1347   -9.3293 H       1  UNL1        0.0000
     21 H           0.6813   10.5218   -9.2392 H       1  UNL1        0.0000
     22 H           0.8699    9.6535  -10.7451 H       1  UNL1        0.0000
@<TRIPOS>BOND
     1    18     8    1
     2    22     9    1
     3    14     7    1
     4     8    17    1
     5     8    19    1
     6     8     1    1
     7     9    20    1
     8     9    21    1
     9     9     1    1
    10     7     1    1
    11     7    16    1
    12     7    15    1
    13     1     2    1
    14    13     6    1
    15     2     6    2
    16     2     3    1
    17     6     5    1
    18    10     3    1
    19     3     4    1
    20     5     4    2
    21     5    12    1
    22     4    11    1
