@<TRIPOS>MOLECULE
2,3,4,5,6
 22 22 0 0 0
SMALL
GASTEIGER

@<TRIPOS>ATOM
      1 SI          2.4097    8.3808   -2.4116 Si      1  UNL1        0.0000
      2 C           2.3892    8.7755   -4.2611 C.3     1  UNL1        0.0000
      3 C           1.5763    9.7565   -4.8758 C.2     1  UNL1        0.0000
      4 C           1.9924    9.9346   -6.2116 C.2     1  UNL1        0.0000
      5 C           3.0966    9.0879   -6.4341 C.3     1  UNL1        0.0000
      6 C           3.3334    8.3667   -5.2445 C.3     1  UNL1        0.0000
      7 C           0.7867    7.5277   -1.8662 C.3     1  UNL1        0.0000
      8 C           3.9256    7.3116   -1.9800 C.3     1  UNL1        0.0000
      9 C           2.5447   10.0682   -1.5227 C.3     1  UNL1        0.0000
     10 H           0.8282   10.3505   -4.3663 H       1  UNL1        0.0000
     11 H           1.6226   10.6807   -6.9034 H       1  UNL1        0.0000
     12 H           3.7232    9.0779   -7.3186 H       1  UNL1        0.0000
     13 H           4.1925    7.7335   -5.0591 H       1  UNL1        0.0000
     14 H           0.5445    6.6838   -2.5084 H       1  UNL1        0.0000
     15 H          -0.0555    8.2145   -1.8780 H       1  UNL1        0.0000
     16 H           0.8784    7.1508   -0.8524 H       1  UNL1        0.0000
     17 H           3.8632    6.3255   -2.4309 H       1  UNL1        0.0000
     18 H           4.0010    7.1760   -0.9058 H       1  UNL1        0.0000
     19 H           4.8497    7.7709   -2.3179 H       1  UNL1        0.0000
     20 H           3.4283   10.6146   -1.8362 H       1  UNL1        0.0000
     21 H           2.6106    9.9244   -0.4498 H       1  UNL1        0.0000
     22 H           1.6833   10.6999   -1.7150 H       1  UNL1        0.0000
@<TRIPOS>BOND
     1    12     5    1
     2    11     4    1
     3     5     4    1
     4     5     6    1
     5     4     3    2
     6     6    13    1
     7     6     2    1
     8     3    10    1
     9     3     2    1
    10     2     1    1
    11    14     7    1
    12    17     8    1
    13     1     8    1
    14     1     7    1
    15     1     9    1
    16    19     8    1
    17     8    18    1
    18    15     7    1
    19     7    16    1
    20    20     9    1
    21    22     9    1
    22     9    21    1
