@<TRIPOS>MOLECULE
1,3,5,7,9
 10 10 0 0 0
SMALL
GASTEIGER

@<TRIPOS>ATOM
      1 C           7.9916   -2.1183    2.7818 C.2     1  UNL1       -0.0763
      2 H           8.3074   -2.6758    3.6532 H       1  UNL1        0.0578
      3 C           6.8137   -2.3429    2.0419 C.2     1  UNL1       -0.0654
      4 H           6.0810   -3.1176    2.2334 H       1  UNL1        0.0615
      5 C           6.8338   -1.4886    0.9176 C.2     1  UNL1       -0.0654
      6 H           6.1105   -1.4832    0.1090 H       1  UNL1        0.0615
      7 C           8.0325   -0.7398    0.9624 C.2     1  UNL1       -0.0763
      8 H           8.3881   -0.0623    0.1931 H       1  UNL1        0.0578
      9 C           8.7486   -1.1360    2.1136 C.3     1  UNL1        0.0054
     10 H           9.7533   -0.8235    2.3719 H       1  UNL1        0.0394
@<TRIPOS>BOND
     1     6     5    1
     2     8     7    1
     3     5     7    2
     4     5     3    1
     5     7     9    1
     6     3     4    1
     7     3     1    2
     8     9    10    1
     9     9     1    1
    10     1     2    1
