@<TRIPOS>MOLECULE
1,3,5,7,9
 10 10 0 0 0
SMALL
GASTEIGER

@<TRIPOS>ATOM
      1 C          18.4277   17.6415   10.8283 C.2     1  UNL1       -0.0763
      2 H          18.1697   18.2955   10.0035 H       1  UNL1        0.0578
      3 C          19.3699   17.9227   11.8372 C.2     1  UNL1       -0.0654
      4 H          19.9339   18.8402   11.9341 H       1  UNL1        0.0615
      5 C          19.5758   16.7505   12.5878 C.2     1  UNL1       -0.0654
      6 H          20.3110   16.6292   13.3746 H       1  UNL1        0.0615
      7 C          18.7969   15.7232   12.0127 C.2     1  UNL1       -0.0763
      8 H          18.8412   14.6739   12.2758 H       1  UNL1        0.0578
      9 C          18.0767   16.2752   10.9284 C.3     1  UNL1        0.0054
     10 H          17.4808   15.7236   10.2120 H       1  UNL1        0.0394
@<TRIPOS>BOND
     1     2     1    1
     2    10     9    1
     3     1     9    1
     4     1     3    2
     5     9     7    1
     6     3     4    1
     7     3     5    1
     8     7     8    1
     9     7     5    2
    10     5     6    1
