@<TRIPOS>MOLECULE
1,3,5,7,9
 10 10 0 0 0
SMALL
GASTEIGER

@<TRIPOS>ATOM
      1 C          15.3768   19.1642   12.6353 C.2     1  UNL1       -0.0837
      2 H          15.5808   20.2238   12.7177 H       1  UNL1        0.0572
      3 C          14.8865   18.3377   13.6674 C.2     1  UNL1       -0.0837
      4 H          14.6722   18.6523   14.6821 H       1  UNL1        0.0572
      5 C          14.5809   17.0773   13.1084 C.3     1  UNL1       -0.0127
      6 H          14.0723   16.2656   13.6143 H       1  UNL1        0.0352
      7 C          14.9005   17.1192   11.7319 C.3     1  UNL1       -0.0235
      8 H          14.6628   16.3517   11.0054 H       1  UNL1        0.0315
      9 C          15.4014   18.4101   11.4433 C.3     1  UNL1       -0.0127
     10 H          15.5939   18.8030   10.4516 H       1  UNL1        0.0352
@<TRIPOS>BOND
     1    10     9    1
     2     8     7    1
     3     9     7    1
     4     9     1    1
     5     7     5    1
     6     1     2    1
     7     1     3    2
     8     5     6    1
     9     5     3    1
    10     3     4    1
