@<TRIPOS>MOLECULE
1,3,5,7,9
 10 10 0 0 0
SMALL
GASTEIGER

@<TRIPOS>ATOM
      1 C           2.3226   13.9482    6.0679 C.2     1  UNL1       -0.0763
      2 H           1.3996   14.4684    6.2939 H       1  UNL1        0.0578
      3 C           3.3088   13.6023    7.0112 C.2     1  UNL1       -0.0654
      4 H           3.2516   13.8002    8.0723 H       1  UNL1        0.0615
      5 C           4.4351   13.1232    6.3089 C.2     1  UNL1       -0.0654
      6 H           5.4024   12.8829    6.7342 H       1  UNL1        0.0615
      7 C           4.1456   13.1734    4.9272 C.2     1  UNL1       -0.0763
      8 H           4.8562   12.9792    4.1349 H       1  UNL1        0.0578
      9 C           2.8314   13.6817    4.7756 C.3     1  UNL1        0.0054
     10 H           2.3451   13.9372    3.8412 H       1  UNL1        0.0394
@<TRIPOS>BOND
     1    10     9    1
     2     8     7    1
     3     9     7    1
     4     9     1    1
     5     7     5    2
     6     1     2    1
     7     1     3    2
     8     5     6    1
     9     5     3    1
    10     3     4    1
