@<TRIPOS>MOLECULE
1,3,5,7,9
 10 10 0 0 0
SMALL
GASTEIGER

@<TRIPOS>ATOM
      1 C           0.7704   10.0058    6.4788 C.2     1  UNL1       -0.0763
      2 H           0.8838    9.2547    7.2523 H       1  UNL1        0.0578
      3 C           0.3395   11.3457    6.6493 C.3     1  UNL1        0.0054
      4 H           0.0654   11.8172    7.5843 H       1  UNL1        0.0394
      5 C           0.1660   11.9064    5.3637 C.2     1  UNL1       -0.0763
      6 H          -0.2878   12.8657    5.1457 H       1  UNL1        0.0578
      7 C           0.4970   10.9287    4.4051 C.2     1  UNL1       -0.0654
      8 H           0.3601   11.0304    3.3374 H       1  UNL1        0.0615
      9 C           0.8637    9.7529    5.0930 C.2     1  UNL1       -0.0654
     10 H           1.0610    8.7842    4.6501 H       1  UNL1        0.0615
@<TRIPOS>BOND
     1     8     7    1
     2     7     9    1
     3     7     5    2
     4    10     9    1
     5     9     1    2
     6     6     5    1
     7     5     3    1
     8     1     3    1
     9     1     2    1
    10     3     4    1
