@<TRIPOS>MOLECULE
1,3,5,7,9
 10 10 0 0 0
SMALL
GASTEIGER

@<TRIPOS>ATOM
      1 C           4.4760    2.1517   11.4863 C.2     1  UNL1       -0.0837
      2 H           4.8232    2.2980   10.4742 H       1  UNL1        0.0572
      3 C           4.6636    0.9907   12.2535 C.3     1  UNL1       -0.0127
      4 H           5.2143    0.1169   11.9313 H       1  UNL1        0.0352
      5 C           4.1711    1.2296   13.5550 C.3     1  UNL1       -0.0235
      6 H           4.2584    0.5640   14.4028 H       1  UNL1        0.0315
      7 C           3.7030    2.5632   13.5953 C.3     1  UNL1       -0.0127
      8 H           3.3819    3.1089   14.4728 H       1  UNL1        0.0352
      9 C           3.8915    3.1277   12.3162 C.2     1  UNL1       -0.0837
     10 H           3.7176    4.1653   12.0602 H       1  UNL1        0.0572
@<TRIPOS>BOND
     1     2     1    1
     2     1     3    1
     3     1     9    2
     4     4     3    1
     5    10     9    1
     6     3     5    1
     7     9     7    1
     8     5     7    1
     9     5     6    1
    10     7     8    1
