@<TRIPOS>MOLECULE
1,3,5,7,9
 10 10 0 0 0
SMALL
GASTEIGER

@<TRIPOS>ATOM
      1 C           0.9374    0.0043   10.8950 C.2     1  UNL1       -0.0763
      2 H           0.3117    0.3913   10.1015 H       1  UNL1        0.0578
      3 C           2.2732   -0.4430   10.7748 C.3     1  UNL1        0.0054
      4 H           2.8604   -0.4455    9.8667 H       1  UNL1        0.0394
      5 C           2.6336   -1.0416   12.0017 C.2     1  UNL1       -0.0763
      6 H           3.5375   -1.6036   12.1952 H       1  UNL1        0.0578
      7 C           1.5451   -0.9400   12.8833 C.2     1  UNL1       -0.0654
      8 H           1.4947   -1.3753   13.8703 H       1  UNL1        0.0615
      9 C           0.4926   -0.3031   12.1979 C.2     1  UNL1       -0.0654
     10 H          -0.5190   -0.1691   12.5598 H       1  UNL1        0.0615
@<TRIPOS>BOND
     1     4     3    1
     2     2     1    1
     3     3     1    1
     4     3     5    1
     5     1     9    2
     6     5     6    1
     7     5     7    2
     8     9    10    1
     9     9     7    1
    10     7     8    1
