@<TRIPOS>MOLECULE
1,2,3,4,5
 10 10 0 0 0
SMALL
GASTEIGER

@<TRIPOS>ATOM
      1 C           3.8004   -1.1839    3.7989 C.2     1  UNL1       -0.0763
      2 C           3.2889   -0.4100    4.8544 C.3     1  UNL1        0.0054
      3 C           4.0163    0.8000    4.9071 C.2     1  UNL1       -0.0763
      4 C           5.0062    0.7532    3.9012 C.2     1  UNL1       -0.0654
      5 C           4.8687   -0.4677    3.2123 C.2     1  UNL1       -0.0654
      6 H           3.5326   -2.2107    3.5816 H       1  UNL1        0.0578
      7 H           2.5669   -0.7531    5.5836 H       1  UNL1        0.0394
      8 H           3.9338    1.5607    5.6765 H       1  UNL1        0.0578
      9 H           5.7996    1.4779    3.7609 H       1  UNL1        0.0615
     10 H           5.5509   -0.8622    2.4695 H       1  UNL1        0.0615
@<TRIPOS>BOND
     1    10     5    1
     2     5     1    2
     3     5     4    1
     4     6     1    1
     5     9     4    1
     6     1     2    1
     7     4     3    2
     8     2     3    1
     9     2     7    1
    10     3     8    1
