@<TRIPOS>MOLECULE
1,2,3,4,5
 10 10 0 0 0
SMALL
GASTEIGER

@<TRIPOS>ATOM
      1 C           0.9181    1.3250    4.4693 C.2     1  UNL1       -0.0837
      2 C           0.3759    0.5732    3.4084 C.3     1  UNL1       -0.0127
      3 C           0.3452    1.4076    2.2618 C.3     1  UNL1       -0.0235
      4 C           0.8766    2.6612    2.6244 C.3     1  UNL1       -0.0127
      5 C           1.2585    2.6019    3.9782 C.2     1  UNL1       -0.0837
      6 H           0.9373    1.0326    5.5112 H       1  UNL1        0.0572
      7 H          -0.0884   -0.4037    3.4923 H       1  UNL1        0.0352
      8 H          -0.1434    1.1764    1.3230 H       1  UNL1        0.0315
      9 H           0.8999    3.5489    2.0058 H       1  UNL1        0.0352
     10 H           1.6124    3.4369    4.5719 H       1  UNL1        0.0572
@<TRIPOS>BOND
     1     8     3    1
     2     9     4    1
     3     3     4    1
     4     3     2    1
     5     4     5    1
     6     2     7    1
     7     2     1    1
     8     5     1    2
     9     5    10    1
    10     1     6    1
