@<TRIPOS>MOLECULE
1,2,3,4,5
 10 10 0 0 0
SMALL
GASTEIGER

@<TRIPOS>ATOM
      1 C          -1.1593    5.0937    4.4823 C.3     1  UNL1       -0.0127
      2 C          -2.3912    4.5252    4.8700 C.2     1  UNL1       -0.0837
      3 C          -3.2471    4.5302    3.7498 C.2     1  UNL1       -0.0837
      4 C          -2.5471    5.1028    2.6666 C.3     1  UNL1       -0.0127
      5 C          -1.2593    5.4612    3.1223 C.3     1  UNL1       -0.0235
      6 H          -0.3430    5.3469    5.1499 H       1  UNL1        0.0352
      7 H          -2.6757    4.2713    5.8843 H       1  UNL1        0.0572
      8 H          -4.3016    4.2803    3.7560 H       1  UNL1        0.0572
      9 H          -2.9757    5.3649    1.7056 H       1  UNL1        0.0352
     10 H          -0.5140    6.0045    2.5553 H       1  UNL1        0.0315
@<TRIPOS>BOND
     1     9     4    1
     2    10     5    1
     3     4     5    1
     4     4     3    1
     5     5     1    1
     6     3     8    1
     7     3     2    2
     8     1     2    1
     9     1     6    1
    10     2     7    1
