@<TRIPOS>MOLECULE
1,2,3,4,5
 10 10 0 0 0
SMALL
GASTEIGER

@<TRIPOS>ATOM
      1 C          -1.1593    0.8113    4.4823 C.2     1  UNL1       -0.0763
      2 C          -2.3913    1.3798    4.8699 C.2     1  UNL1       -0.0654
      3 C          -3.2471    1.3748    3.7498 C.2     1  UNL1       -0.0654
      4 C          -2.5471    0.8022    2.6665 C.2     1  UNL1       -0.0763
      5 C          -1.2593    0.4437    3.1223 C.3     1  UNL1        0.0054
      6 H          -0.3430    0.5581    5.1499 H       1  UNL1        0.0578
      7 H          -2.6758    1.6337    5.8842 H       1  UNL1        0.0615
      8 H          -4.3016    1.6247    3.7560 H       1  UNL1        0.0615
      9 H          -2.9757    0.5400    1.7056 H       1  UNL1        0.0578
     10 H          -0.5139   -0.0994    2.5553 H       1  UNL1        0.0394
@<TRIPOS>BOND
     1     9     4    1
     2    10     5    1
     3     4     5    1
     4     4     3    2
     5     5     1    1
     6     3     8    1
     7     3     2    1
     8     1     2    2
     9     1     6    1
    10     2     7    1
