@<TRIPOS>MOLECULE
1,3,5,7,9
 10 10 0 0 0
SMALL
GASTEIGER

@<TRIPOS>ATOM
      1 C          10.4239   15.1430   15.3307 C.2     1  UNL1       -0.0763
      2 H          11.3927   15.3618   15.7635 H       1  UNL1        0.0578
      3 C           9.7721   15.8961   14.3316 C.3     1  UNL1        0.0054
      4 H          10.1613   16.7924   13.8602 H       1  UNL1        0.0394
      5 C           8.4573   15.3947   14.2021 C.2     1  UNL1       -0.0763
      6 H           7.6579   15.8423   13.6268 H       1  UNL1        0.0578
      7 C           8.3055   14.3325   15.1148 C.2     1  UNL1       -0.0654
      8 H           7.3863   13.8049   15.3246 H       1  UNL1        0.0615
      9 C           9.5193   14.1826   15.8147 C.2     1  UNL1       -0.0654
     10 H           9.6874   13.5276   16.6599 H       1  UNL1        0.0615
@<TRIPOS>BOND
     1     6     5    1
     2     4     3    1
     3     5     3    1
     4     5     7    2
     5     3     1    1
     6     7     8    1
     7     7     9    1
     8     1     2    1
     9     1     9    2
    10     9    10    1
