@<TRIPOS>MOLECULE
1,3,5,7,9
 10 10 0 0 0
SMALL
GASTEIGER

@<TRIPOS>ATOM
      1 C           2.2586    7.3549    1.9642 C.2     1  UNL1       -0.0654
      2 H           2.4348    8.2581    2.5351 H       1  UNL1        0.0615
      3 C           1.6115    6.1981    2.4344 C.2     1  UNL1       -0.0763
      4 H           1.2201    6.0551    3.4346 H       1  UNL1        0.0578
      5 C           1.4032    5.3392    1.3319 C.3     1  UNL1        0.0054
      6 H           0.8278    4.4273    1.3406 H       1  UNL1        0.0394
      7 C           1.9322    5.9659    0.1854 C.2     1  UNL1       -0.0763
      8 H           1.8152    5.6151   -0.8314 H       1  UNL1        0.0578
      9 C           2.4625    7.2125    0.5800 C.2     1  UNL1       -0.0654
     10 H           2.8200    7.9917   -0.0830 H       1  UNL1        0.0615
@<TRIPOS>BOND
     1     8     7    1
     2    10     9    1
     3     7     9    2
     4     7     5    1
     5     9     1    1
     6     5     6    1
     7     5     3    1
     8     1     3    2
     9     1     2    1
    10     3     4    1
