@<TRIPOS>MOLECULE
1,3,5,7,9
 10 10 0 0 0
SMALL
GASTEIGER

@<TRIPOS>ATOM
      1 C          12.4420   14.4028   13.1699 C.2     1  UNL1       -0.0763
      2 H          12.8960   15.2098   13.7319 H       1  UNL1        0.0578
      3 C          11.9308   14.5100   11.8638 C.2     1  UNL1       -0.0654
      4 H          11.9545   15.4082   11.2594 H       1  UNL1        0.0615
      5 C          12.4357   13.0426   13.5330 C.3     1  UNL1        0.0054
      6 H          12.8633   12.6217   14.4365 H       1  UNL1        0.0394
      7 C          11.9397   12.3042   12.4362 C.2     1  UNL1       -0.0763
      8 H          11.9281   11.2263   12.3560 H       1  UNL1        0.0578
      9 C          11.6131   13.2112   11.4092 C.2     1  UNL1       -0.0654
     10 H          11.3193   12.9430   10.4030 H       1  UNL1        0.0615
@<TRIPOS>BOND
     1    10     9    1
     2     4     3    1
     3     9     3    1
     4     9     7    2
     5     3     1    2
     6     8     7    1
     7     7     5    1
     8     1     5    1
     9     1     2    1
    10     5     6    1
