@<TRIPOS>MOLECULE
1,2,3,4,5
 10 10 0 0 0
SMALL
GASTEIGER

@<TRIPOS>ATOM
      1 C           7.7692    0.6622    2.4220 C.3     1  UNL1       -0.0127
      2 C           7.9294    1.3442    1.1862 C.2     1  UNL1       -0.0837
      3 C           8.8373    2.4006    1.3864 C.2     1  UNL1       -0.0837
      4 C           9.2390    2.3795    2.7492 C.3     1  UNL1       -0.0127
      5 C           8.6175    1.2737    3.3727 C.3     1  UNL1       -0.0235
      6 H           7.2343   -0.2627    2.5644 H       1  UNL1        0.0352
      7 H           7.5042    1.0430    0.2428 H       1  UNL1        0.0572
      8 H           9.2316    3.0523    0.6240 H       1  UNL1        0.0572
      9 H          10.0133    2.9889    3.1847 H       1  UNL1        0.0352
     10 H           8.8090    0.9198    4.3710 H       1  UNL1        0.0315
@<TRIPOS>BOND
     1     7     2    1
     2     8     3    1
     3     2     3    2
     4     2     1    1
     5     3     4    1
     6     1     6    1
     7     1     5    1
     8     4     9    1
     9     4     5    1
    10     5    10    1
