@<TRIPOS>MOLECULE
1,2,3,4,5
 10 10 0 0 0
SMALL
GASTEIGER

@<TRIPOS>ATOM
      1 C           1.9633    0.6297    2.1085 C.3     1  UNL1       -0.0127
      2 C           3.3260    0.4342    2.4273 C.3     1  UNL1       -0.0235
      3 C           3.5097    0.7748    3.7881 C.3     1  UNL1       -0.0127
      4 C           2.2421    1.1143    4.3290 C.2     1  UNL1       -0.0837
      5 C           1.2884    1.0278    3.2933 C.2     1  UNL1       -0.0837
      6 H           1.4937    0.3637    1.1766 H       1  UNL1        0.0352
      7 H           4.0746    0.0213    1.7734 H       1  UNL1        0.0315
      8 H           4.4179    0.6365    4.3501 H       1  UNL1        0.0352
      9 H           2.0329    1.3063    5.3688 H       1  UNL1        0.0572
     10 H           0.2218    1.1364    3.4034 H       1  UNL1        0.0572
@<TRIPOS>BOND
     1     6     1    1
     2     7     2    1
     3     1     2    1
     4     1     5    1
     5     2     3    1
     6     5    10    1
     7     5     4    2
     8     3     4    1
     9     3     8    1
    10     4     9    1
