@<TRIPOS>MOLECULE
1,2,3,4,5
 10 10 0 0 0
SMALL
GASTEIGER

@<TRIPOS>ATOM
      1 C           3.2468    2.6366    0.3317 C.2     1  UNL1       -0.0654
      2 C           3.1108    3.3844    1.5424 C.2     1  UNL1       -0.0654
      3 C           3.2709    2.4797    2.6200 C.2     1  UNL1       -0.0763
      4 C           3.5415    1.1961    2.0964 C.3     1  UNL1        0.0054
      5 C           3.5133    1.2913    0.6737 C.2     1  UNL1       -0.0763
      6 H           3.0520    3.0170   -0.6641 H       1  UNL1        0.0615
      7 H           2.7665    4.4076    1.6132 H       1  UNL1        0.0615
      8 H           3.1446    2.7207    3.6677 H       1  UNL1        0.0578
      9 H           3.5851    0.2745    2.6625 H       1  UNL1        0.0394
     10 H           3.5552    0.4547   -0.0120 H       1  UNL1        0.0578
@<TRIPOS>BOND
     1     6     1    1
     2    10     5    1
     3     1     5    2
     4     1     2    1
     5     5     4    1
     6     2     7    1
     7     2     3    2
     8     4     3    1
     9     4     9    1
    10     3     8    1
