@<TRIPOS>MOLECULE
1,2,3,4,5
 10 10 0 0 0
SMALL
GASTEIGER

@<TRIPOS>ATOM
      1 C           4.1006    6.1330    8.6258 C.2     1  UNL1       -0.0763
      2 C           4.1375    4.8121    9.1374 C.3     1  UNL1        0.0054
      3 C           2.8061    4.3768    9.3085 C.2     1  UNL1       -0.0763
      4 C           1.9445    5.4099    8.8779 C.2     1  UNL1       -0.0654
      5 C           2.7460    6.5009    8.4769 C.2     1  UNL1       -0.0654
      6 H           4.9547    6.7886    8.5033 H       1  UNL1        0.0578
      7 H           5.0148    4.2906    9.4942 H       1  UNL1        0.0394
      8 H           2.5114    3.4716    9.8245 H       1  UNL1        0.0578
      9 H           0.8645    5.4235    8.9738 H       1  UNL1        0.0615
     10 H           2.3796    7.4828    8.2019 H       1  UNL1        0.0615
@<TRIPOS>BOND
     1    10     5    1
     2     5     1    2
     3     5     4    1
     4     6     1    1
     5     1     2    1
     6     4     9    1
     7     4     3    2
     8     2     3    1
     9     2     7    1
    10     3     8    1
