@<TRIPOS>MOLECULE
1,2,3,4,5
 10 10 0 0 0
SMALL
GASTEIGER

@<TRIPOS>ATOM
      1 C           3.3344    2.5110    5.5197 C.2     1  UNL1       -0.0763
      2 C           2.1952    3.1750    5.0211 C.2     1  UNL1       -0.0654
      3 C           1.2290    3.2224    6.0515 C.2     1  UNL1       -0.0654
      4 C           1.7685    2.5838    7.1833 C.2     1  UNL1       -0.0763
      5 C           3.0851    2.1647    6.8698 C.3     1  UNL1        0.0054
      6 H           4.2058    2.2287    4.9432 H       1  UNL1        0.0578
      7 H           2.0380    3.4950    3.9975 H       1  UNL1        0.0615
      8 H           0.2134    3.5854    5.9455 H       1  UNL1        0.0615
      9 H           1.2154    2.3253    8.0779 H       1  UNL1        0.0578
     10 H           3.7266    1.5510    7.4926 H       1  UNL1        0.0394
@<TRIPOS>BOND
     1     7     2    1
     2     6     1    1
     3     2     1    2
     4     2     3    1
     5     1     5    1
     6     8     3    1
     7     3     4    2
     8     5     4    1
     9     5    10    1
    10     4     9    1
