@<TRIPOS>MOLECULE
1,2,3,4,5
 10 10 0 0 0
SMALL
GASTEIGER

@<TRIPOS>ATOM
      1 C           3.3741    6.0120    3.0899 C.2     1  UNL1       -0.0837
      2 C           3.3401    5.0366    2.0756 C.2     1  UNL1       -0.0837
      3 C           4.6647    4.5828    1.8482 C.3     1  UNL1       -0.0127
      4 C           5.5223    5.2996    2.7055 C.3     1  UNL1       -0.0235
      5 C           4.7266    6.1705    3.4993 C.3     1  UNL1       -0.0127
      6 H           2.5517    6.6469    3.3937 H       1  UNL1        0.0572
      7 H           2.4736    4.7636    1.4881 H       1  UNL1        0.0572
      8 H           4.9752    3.9315    1.0407 H       1  UNL1        0.0352
      9 H           6.6058    5.2847    2.6759 H       1  UNL1        0.0315
     10 H           5.0966    6.9783    4.1208 H       1  UNL1        0.0352
@<TRIPOS>BOND
     1     8     3    1
     2     7     2    1
     3     3     2    1
     4     3     4    1
     5     2     1    2
     6     9     4    1
     7     4     5    1
     8     1     6    1
     9     1     5    1
    10     5    10    1
