@<TRIPOS>MOLECULE
1,3,5,7,9
 10 10 0 0 0
SMALL
GASTEIGER

@<TRIPOS>ATOM
      1 C           5.3324   12.3995    4.2640 C.3     1  UNL1       -0.0127
      2 H           6.2418   12.5888    4.8213 H       1  UNL1        0.0352
      3 C           4.0456   12.9020    4.5979 C.2     1  UNL1       -0.0837
      4 H           3.8225   13.5284    5.4517 H       1  UNL1        0.0572
      5 C           3.1763   12.6610    3.5123 C.2     1  UNL1       -0.0837
      6 H           2.1671   13.0420    3.4244 H       1  UNL1        0.0572
      7 C           3.8994   11.9669    2.5186 C.3     1  UNL1       -0.0127
      8 H           3.5642   11.7534    1.5117 H       1  UNL1        0.0352
      9 C           5.2419   11.8140    2.9812 C.3     1  UNL1       -0.0235
     10 H           6.0761   11.4839    2.3738 H       1  UNL1        0.0315
@<TRIPOS>BOND
     1     8     7    1
     2    10     9    1
     3     7     9    1
     4     7     5    1
     5     9     1    1
     6     6     5    1
     7     5     3    2
     8     1     3    1
     9     1     2    1
    10     3     4    1
