@<TRIPOS>MOLECULE
1,3,5,7,9
 10 10 0 0 0
SMALL
GASTEIGER

@<TRIPOS>ATOM
      1 C           3.4503    4.2546   17.9372 C.2     1  UNL1       -0.0763
      2 H           3.7280    4.4197   18.9704 H       1  UNL1        0.0578
      3 C           4.1882    3.5292   16.9768 C.2     1  UNL1       -0.0654
      4 H           5.1559    3.0676   17.1267 H       1  UNL1        0.0615
      5 C           3.3824    3.3801   15.8268 C.2     1  UNL1       -0.0654
      6 H           3.6161    2.7589   14.9719 H       1  UNL1        0.0615
      7 C           2.1175    3.9751   16.0843 C.2     1  UNL1       -0.0763
      8 H           1.2373    3.8771   15.4599 H       1  UNL1        0.0578
      9 C           2.1610    4.5227   17.3867 C.3     1  UNL1        0.0054
     10 H           1.3138    4.9120   17.9392 H       1  UNL1        0.0394
@<TRIPOS>BOND
     1     6     5    1
     2     8     7    1
     3     5     7    2
     4     5     3    1
     5     7     9    1
     6     3     4    1
     7     3     1    2
     8     9     1    1
     9     9    10    1
    10     1     2    1
