@<TRIPOS>MOLECULE
1,3,5,7,9
 10 10 0 0 0
SMALL
GASTEIGER

@<TRIPOS>ATOM
      1 C          -8.4217   28.1793    4.4462 C.2     1  UNL1       -0.0654
      2 H          -8.8097   28.2975    3.4435 H       1  UNL1        0.0615
      3 C          -8.4779   26.9926    5.2107 C.2     1  UNL1       -0.0654
      4 H          -8.9245   26.0576    4.8988 H       1  UNL1        0.0615
      5 C          -8.0629   27.2928    6.5341 C.2     1  UNL1       -0.0763
      6 H          -8.1518   26.6264    7.3829 H       1  UNL1        0.0578
      7 C          -7.7141   28.6626    6.5749 C.3     1  UNL1        0.0054
      8 H          -7.5073   29.2391    7.4681 H       1  UNL1        0.0394
      9 C          -7.9292   29.2114    5.2759 C.2     1  UNL1       -0.0763
     10 H          -7.8978   30.2670    5.0384 H       1  UNL1        0.0578
@<TRIPOS>BOND
     1     2     1    1
     2     1     3    1
     3     1     9    2
     4     4     3    1
     5    10     9    1
     6     3     5    2
     7     9     7    1
     8     5     7    1
     9     5     6    1
    10     7     8    1
