@<TRIPOS>MOLECULE
1,3,5,7,9
 10 10 0 0 0
SMALL
GASTEIGER

@<TRIPOS>ATOM
      1 C           0.7252    5.0536   10.1923 C.3     1  UNL1        0.0054
      2 H          -0.0604    4.5276   10.7200 H       1  UNL1        0.0394
      3 C           2.0339    4.5429    9.9482 C.2     1  UNL1       -0.0763
      4 H           2.3908    3.5746   10.2744 H       1  UNL1        0.0578
      5 C           2.6632    5.3983    9.0149 C.2     1  UNL1       -0.0654
      6 H           3.6096    5.2211    8.5215 H       1  UNL1        0.0615
      7 C           1.7683    6.4472    8.7097 C.2     1  UNL1       -0.0654
      8 H           1.9049    7.1908    7.9346 H       1  UNL1        0.0615
      9 C           0.5599    6.2258    9.4185 C.2     1  UNL1       -0.0763
     10 H          -0.3642    6.7679    9.2621 H       1  UNL1        0.0578
@<TRIPOS>BOND
     1     8     7    1
     2     6     5    1
     3     7     5    1
     4     7     9    2
     5     5     3    2
     6    10     9    1
     7     9     1    1
     8     3     1    1
     9     3     4    1
    10     1     2    1
