@<TRIPOS>MOLECULE
1,2,3,4,5
 10 10 0 0 0
SMALL
GASTEIGER

@<TRIPOS>ATOM
      1 C          14.2521    2.0273    6.2205 C.2     1  UNL1       -0.0763
      2 C          13.4543    1.2203    5.3750 C.2     1  UNL1       -0.0654
      3 C          12.9589    2.0380    4.3290 C.2     1  UNL1       -0.0654
      4 C          13.4238    3.3462    4.5378 C.2     1  UNL1       -0.0763
      5 C          14.2070    3.3505    5.7180 C.3     1  UNL1        0.0054
      6 H          14.8682    1.6793    7.0317 H       1  UNL1        0.0578
      7 H          13.3627    0.1482    5.4292 H       1  UNL1        0.0615
      8 H          12.3967    1.6935    3.4771 H       1  UNL1        0.0615
      9 H          13.2771    4.1844    3.8758 H       1  UNL1        0.0578
     10 H          14.7879    4.1814    6.0836 H       1  UNL1        0.0394
@<TRIPOS>BOND
     1     8     3    1
     2     9     4    1
     3     3     4    2
     4     3     2    1
     5     4     5    1
     6     2     7    1
     7     2     1    2
     8     5    10    1
     9     5     1    1
    10     1     6    1
