@<TRIPOS>MOLECULE
1,3,5,7,9
 10 10 0 0 0
SMALL
GASTEIGER

@<TRIPOS>ATOM
      1 C          11.5945    6.5575   11.5001 C.3     1  UNL1       -0.0235
      2 H          11.1248    5.6520   11.8435 H       1  UNL1        0.0315
      3 C          11.7058    7.7564   12.2356 C.3     1  UNL1       -0.0127
      4 H          11.3489    7.9103   13.2401 H       1  UNL1        0.0352
      5 C          12.5426    8.6456   11.5103 C.2     1  UNL1       -0.0837
      6 H          12.9096    9.5943   11.8637 H       1  UNL1        0.0572
      7 C          12.9229    8.0033   10.3155 C.2     1  UNL1       -0.0837
      8 H          13.6230    8.3830    9.5898 H       1  UNL1        0.0572
      9 C          12.3138    6.7226   10.2901 C.3     1  UNL1       -0.0127
     10 H          12.5157    5.9444    9.5722 H       1  UNL1        0.0352
@<TRIPOS>BOND
     1    10     9    1
     2     8     7    1
     3     9     7    1
     4     9     1    1
     5     7     5    2
     6     1     2    1
     7     1     3    1
     8     5     6    1
     9     5     3    1
    10     3     4    1
