@<TRIPOS>MOLECULE
5,6,7,8,9
 74 74 0 0 0
SMALL
GASTEIGER

@<TRIPOS>ATOM
      1 P           7.9636    5.5185    2.1108 P.3     1  UNL1        0.0000
      2 P          11.1249    5.6177   -2.2258 P.3     1  UNL1        0.0000
      3 SI         10.2366    5.0462    4.1737 Si      1  UNL1        0.0000
      4 SI         13.6155    4.7397   -0.6218 Si      1  UNL1        0.0000
      5 C          11.1006    5.4474    2.5696 C.3     1  UNL1        0.0000
      6 C          11.1075    6.7313    1.9558 C.2     1  UNL1        0.0000
      7 C          11.9314    6.6836    0.8300 C.2     1  UNL1        0.0000
      8 C          12.4563    5.3631    0.7048 C.3     1  UNL1        0.0000
      9 C          11.9141    4.6124    1.7753 C.3     1  UNL1        0.0000
     10 C           8.3910    5.5512    3.9134 C.3     1  UNL1        0.0000
     11 C          10.4250    3.2159    4.6626 C.3     1  UNL1        0.0000
     12 C          10.8901    6.1312    5.6089 C.3     1  UNL1        0.0000
     13 C          14.4062    3.0777   -0.1332 C.3     1  UNL1        0.0000
     14 C          15.0591    5.9659   -0.9350 C.3     1  UNL1        0.0000
     15 C          12.5847    4.4953   -2.2344 C.3     1  UNL1        0.0000
     16 C           6.8189    7.0059    1.9557 C.3     1  UNL1        0.0000
     17 C           7.6772    8.2704    1.9632 C.3     1  UNL1        0.0000
     18 C           5.7084    7.0862    2.9979 C.3     1  UNL1        0.0000
     19 C           6.7495    4.0980    2.0718 C.3     1  UNL1        0.0000
     20 C           7.5343    2.8192    2.3449 C.3     1  UNL1        0.0000
     21 C           6.0819    4.0277    0.7020 C.3     1  UNL1        0.0000
     22 C          11.9838    7.2492   -2.6382 C.3     1  UNL1        0.0000
     23 C          11.0449    8.4212   -2.3479 C.3     1  UNL1        0.0000
     24 C          12.6144    7.3636   -4.0223 C.3     1  UNL1        0.0000
     25 C          10.3122    5.1416   -3.8536 C.3     1  UNL1        0.0000
     26 C           9.5894    3.8122   -3.6594 C.3     1  UNL1        0.0000
     27 C           9.2991    6.1784   -4.3352 C.3     1  UNL1        0.0000
     28 H          10.6639    7.6261    2.3776 H       1  UNL1        0.0000
     29 H          12.2437    7.5442    0.2513 H       1  UNL1        0.0000
     30 H          12.1831    3.5971    2.0205 H       1  UNL1        0.0000
     31 H           7.6901    4.9356    4.4751 H       1  UNL1        0.0000
     32 H           8.2751    6.5774    4.2626 H       1  UNL1        0.0000
     33 H          10.2617    2.5499    3.8222 H       1  UNL1        0.0000
     34 H           9.7330    2.9411    5.4523 H       1  UNL1        0.0000
     35 H          11.4283    3.0362    5.0333 H       1  UNL1        0.0000
     36 H          11.9232    5.8889    5.8321 H       1  UNL1        0.0000
     37 H          10.3137    5.9732    6.5148 H       1  UNL1        0.0000
     38 H          10.8489    7.1897    5.3721 H       1  UNL1        0.0000
     39 H          15.0864    2.7306   -0.9039 H       1  UNL1        0.0000
     40 H          13.6617    2.3058    0.0232 H       1  UNL1        0.0000
     41 H          14.9766    3.1814    0.7833 H       1  UNL1        0.0000
     42 H          15.8329    5.8207   -0.1885 H       1  UNL1        0.0000
     43 H          14.7589    7.0072   -0.8839 H       1  UNL1        0.0000
     44 H          15.5113    5.8019   -1.9082 H       1  UNL1        0.0000
     45 H          12.1770    3.4834   -2.2221 H       1  UNL1        0.0000
     46 H          13.1706    4.6160   -3.1462 H       1  UNL1        0.0000
     47 H           6.3713    6.9192    0.9593 H       1  UNL1        0.0000
     48 H           7.0571    9.1491    1.7929 H       1  UNL1        0.0000
     49 H           8.4182    8.2207    1.1628 H       1  UNL1        0.0000
     50 H           8.1867    8.3990    2.9185 H       1  UNL1        0.0000
     51 H           5.0373    6.2339    2.9314 H       1  UNL1        0.0000
     52 H           5.1195    7.9869    2.8295 H       1  UNL1        0.0000
     53 H           6.1102    7.1348    4.0077 H       1  UNL1        0.0000
     54 H           5.9924    4.2420    2.8532 H       1  UNL1        0.0000
     55 H           7.9219    2.8051    3.3608 H       1  UNL1        0.0000
     56 H           8.3729    2.7523    1.6319 H       1  UNL1        0.0000
     57 H           6.8962    1.9470    2.2135 H       1  UNL1        0.0000
     58 H           6.8472    4.0126   -0.0782 H       1  UNL1        0.0000
     59 H           5.4281    4.8803    0.5306 H       1  UNL1        0.0000
     60 H           5.4854    3.1204    0.6188 H       1  UNL1        0.0000
     61 H          12.8038    7.2832   -1.9104 H       1  UNL1        0.0000
     62 H          10.2916    8.5244   -3.1235 H       1  UNL1        0.0000
     63 H          11.6037    9.3556   -2.2932 H       1  UNL1        0.0000
     64 H          10.5203    8.2713   -1.4011 H       1  UNL1        0.0000
     65 H          11.8659    7.3883   -4.8085 H       1  UNL1        0.0000
     66 H          13.2937    6.5369   -4.2156 H       1  UNL1        0.0000
     67 H          13.1896    8.2873   -4.0811 H       1  UNL1        0.0000
     68 H          11.1113    5.0198   -4.5968 H       1  UNL1        0.0000
     69 H           9.2414    3.4282   -4.6175 H       1  UNL1        0.0000
     70 H           8.7249    3.9665   -3.0134 H       1  UNL1        0.0000
     71 H          10.2292    3.0643   -3.1957 H       1  UNL1        0.0000
     72 H           9.7744    7.0857   -4.6972 H       1  UNL1        0.0000
     73 H           8.6175    6.4377   -3.5273 H       1  UNL1        0.0000
     74 H           8.7134    5.7636   -5.1549 H       1  UNL1        0.0000
@<TRIPOS>BOND
     1    74    27    1
     2    65    24    1
     3    72    27    1
     4    69    26    1
     5    68    25    1
     6    27    25    1
     7    27    73    1
     8    66    24    1
     9    67    24    1
    10    24    22    1
    11    25    26    1
    12    25     2    1
    13    26    71    1
    14    26    70    1
    15    46    15    1
    16    62    23    1
    17    22    23    1
    18    22     2    1
    19    22    61    1
    20    23    63    1
    21    23    64    1
    22    15     2    1
    23    15    45    1
    24    15     4    1
    25    44    14    1
    26    14    43    1
    27    14     4    1
    28    14    42    1
    29    39    13    1
    30     4    13    1
    31     4     8    1
    32    13    40    1
    33    13    41    1
    34    58    21    1
    35    29     7    1
    36    59    21    1
    37    60    21    1
    38    21    19    1
    39     8     7    1
    40     8     9    1
    41     7     6    2
    42    47    16    1
    43    49    17    1
    44    56    20    1
    45     9    30    1
    46     9     5    1
    47    48    17    1
    48    16    17    1
    49    16     1    1
    50    16    18    1
    51     6    28    1
    52     6     5    1
    53    17    50    1
    54    19     1    1
    55    19    20    1
    56    19    54    1
    57     1    10    1
    58    57    20    1
    59    20    55    1
    60     5     3    1
    61    52    18    1
    62    51    18    1
    63    18    53    1
    64    33    11    1
    65    10     3    1
    66    10    32    1
    67    10    31    1
    68     3    11    1
    69     3    12    1
    70    11    35    1
    71    11    34    1
    72    38    12    1
    73    12    36    1
    74    12    37    1
