@<TRIPOS>MOLECULE
1,2,3,4,5
 10 10 0 0 0
SMALL
GASTEIGER

@<TRIPOS>ATOM
      1 C           2.7151   11.8704    2.0024 C.3     1  UNL1        0.0054
      2 C           2.0546   11.9238    3.2550 C.2     1  UNL1       -0.0763
      3 C           0.7183   11.5143    3.0629 C.2     1  UNL1       -0.0654
      4 C           0.5256   11.2811    1.6677 C.2     1  UNL1       -0.0654
      5 C           1.7509   11.5139    1.0169 C.2     1  UNL1       -0.0763
      6 H           3.7113   12.2522    1.7993 H       1  UNL1        0.0394
      7 H           2.4835   12.2923    4.1791 H       1  UNL1        0.0578
      8 H          -0.0767   11.6054    3.7961 H       1  UNL1        0.0615
      9 H          -0.4301   11.1274    1.1792 H       1  UNL1        0.0615
     10 H           1.9094   11.5292   -0.0561 H       1  UNL1        0.0578
@<TRIPOS>BOND
     1    10     5    1
     2     5     4    2
     3     5     1    1
     4     9     4    1
     5     4     3    1
     6     6     1    1
     7     1     2    1
     8     3     2    2
     9     3     8    1
    10     2     7    1
