@<TRIPOS>MOLECULE
1,2,3,4,5
 10 10 0 0 0
SMALL
GASTEIGER

@<TRIPOS>ATOM
      1 C          -4.2979    8.8520    9.2382 C.3     1  UNL1        0.0054
      2 C          -4.4024    9.7991    8.1936 C.2     1  UNL1       -0.0763
      3 C          -3.6728    9.3119    7.0843 C.2     1  UNL1       -0.0654
      4 C          -3.1333    8.0585    7.4445 C.2     1  UNL1       -0.0654
      5 C          -3.5042    7.7758    8.7769 C.2     1  UNL1       -0.0763
      6 H          -4.8648    8.8671   10.1624 H       1  UNL1        0.0394
      7 H          -5.0616   10.6600    8.1865 H       1  UNL1        0.0578
      8 H          -2.6237    7.3763    6.7745 H       1  UNL1        0.0615
      9 H          -3.6881    9.7273    6.0835 H       1  UNL1        0.0615
     10 H          -3.3703    6.8252    9.2797 H       1  UNL1        0.0578
@<TRIPOS>BOND
     1     9     3    1
     2     8     4    1
     3     3     4    1
     4     3     2    2
     5     4     5    2
     6     7     2    1
     7     2     1    1
     8     5     1    1
     9     5    10    1
    10     1     6    1
