@<TRIPOS>MOLECULE
1,2,3,7,8
 10 10 0 0 0
SMALL
GASTEIGER

@<TRIPOS>ATOM
      1 C           4.5484   -3.3373    2.9607 C.2     1  UNL1       -0.0763
      2 C           4.7260   -2.1980    2.1418 C.2     1  UNL1       -0.0654
      3 C           4.9426   -2.6323    0.8219 C.2     1  UNL1       -0.0654
      4 H           4.4811   -3.3373    4.0426 H       1  UNL1        0.0578
      5 H           4.8456   -1.1828    2.4881 H       1  UNL1        0.0615
      6 H           5.2533   -1.9908    0.0082 H       1  UNL1        0.0615
      7 C           4.7260   -4.4765    2.1418 C.3     1  UNL1        0.0054
      8 C           4.9426   -4.0422    0.8219 C.2     1  UNL1       -0.0763
      9 H           5.2533   -4.6837    0.0082 H       1  UNL1        0.0578
     10 H           4.8456   -5.4917    2.4881 H       1  UNL1        0.0394
@<TRIPOS>BOND
     1     9     8    1
     2     6     3    1
     3     8     3    2
     4     8     7    1
     5     3     2    1
     6     2     5    1
     7     2     1    2
     8     7    10    1
     9     7     1    1
    10     1     4    1
