@<TRIPOS>MOLECULE
1,2,3,7,8
 10 10 0 0 0
SMALL
GASTEIGER

@<TRIPOS>ATOM
      1 C           0.5808   -3.3372   -0.4839 C.2     1  UNL1       -0.0654
      2 C           1.3684   -2.1980   -0.7678 C.2     1  UNL1       -0.0763
      3 C           2.6472   -2.6321   -1.1617 C.3     1  UNL1        0.0054
      4 H          -0.4803   -3.3372   -0.2635 H       1  UNL1        0.0615
      5 H           1.0103   -1.1821   -0.8373 H       1  UNL1        0.0578
      6 H           3.4101   -1.9905   -1.5821 H       1  UNL1        0.0394
      7 C           1.3683   -4.4764   -0.7679 C.2     1  UNL1       -0.0654
      8 C           2.6472   -4.0424   -1.1618 C.2     1  UNL1       -0.0763
      9 H           3.4100   -4.6841   -1.5821 H       1  UNL1        0.0578
     10 H           1.0102   -5.4923   -0.8374 H       1  UNL1        0.0615
@<TRIPOS>BOND
     1     9     8    1
     2     6     3    1
     3     8     3    1
     4     8     7    2
     5     3     2    1
     6    10     7    1
     7     5     2    1
     8     7     1    1
     9     2     1    2
    10     1     4    1
