@<TRIPOS>MOLECULE
1,2,3,4,5
 10 10 0 0 0
SMALL
GASTEIGER

@<TRIPOS>ATOM
      1 C           4.5934    1.4796    2.8792 C.3     1  UNL1        0.0054
      2 C           4.5941    2.1892    4.1010 C.2     1  UNL1       -0.0763
      3 C           3.3485    1.9813    4.7268 C.2     1  UNL1       -0.0654
      4 C           2.5733    1.1410    3.8917 C.2     1  UNL1       -0.0654
      5 C           3.3475    0.8213    2.7625 C.2     1  UNL1       -0.0763
      6 H           5.4404    1.3414    2.2163 H       1  UNL1        0.0394
      7 H           5.4483    2.6769    4.5550 H       1  UNL1        0.0578
      8 H           3.0885    2.2834    5.7321 H       1  UNL1        0.0615
      9 H           1.6062    0.7194    4.1352 H       1  UNL1        0.0615
     10 H           3.0854    0.0967    2.0007 H       1  UNL1        0.0578
@<TRIPOS>BOND
     1    10     5    1
     2     6     1    1
     3     5     1    1
     4     5     4    2
     5     1     2    1
     6     4     9    1
     7     4     3    1
     8     2     7    1
     9     2     3    2
    10     3     8    1
