@<TRIPOS>MOLECULE
1,2,3,4,5
 10 10 0 0 0
SMALL
GASTEIGER

@<TRIPOS>ATOM
      1 C           4.6834    4.3113    1.1174 C.3     1  UNL1       -0.0127
      2 C           5.0108    4.7486    2.4176 C.2     1  UNL1       -0.0837
      3 C           3.9830    5.5995    2.8656 C.2     1  UNL1       -0.0837
      4 C           3.0216    5.7060    1.8291 C.3     1  UNL1       -0.0127
      5 C           3.4569    4.9123    0.7513 C.3     1  UNL1       -0.0235
      6 H           5.3197    3.7311    0.4592 H       1  UNL1        0.0352
      7 H           5.9536    4.5749    2.9209 H       1  UNL1        0.0572
      8 H           3.9928    6.1793    3.7794 H       1  UNL1        0.0572
      9 H           2.1761    6.3808    1.8131 H       1  UNL1        0.0352
     10 H           2.9970    4.8670   -0.2299 H       1  UNL1        0.0315
@<TRIPOS>BOND
     1    10     5    1
     2     6     1    1
     3     5     1    1
     4     5     4    1
     5     1     2    1
     6     9     4    1
     7     4     3    1
     8     2     3    2
     9     2     7    1
    10     3     8    1
