@<TRIPOS>MOLECULE
1,2,3,4,5
 25 25 0 0 0
SMALL
GASTEIGER

@<TRIPOS>ATOM
      1 C          -4.0274    5.4009   10.6402 C.3     1  UNL1        0.0052
      2 C          -2.9121    4.6569   10.1586 C.3     1  UNL1       -0.0053
      3 C          -1.8421    5.5734    9.9145 C.3     1  UNL1        0.0052
      4 C          -2.3619    6.9110   10.0971 C.2     1  UNL1       -0.0658
      5 C          -3.6984    6.8048   10.5483 C.2     1  UNL1       -0.0658
      6 C          -5.4075    4.8330   10.8135 C.3     1  UNL1       -0.0545
      7 C          -2.9496    3.2003    9.8115 C.3     1  UNL1       -0.0574
      8 C          -0.6031    5.2667    9.1160 C.3     1  UNL1       -0.0545
      9 C          -1.6677    8.1682    9.6617 C.3     1  UNL1       -0.0430
     10 C          -4.6744    7.9367   10.6796 C.3     1  UNL1       -0.0430
     11 H          -6.0452    5.5071   11.3818 H       1  UNL1        0.0239
     12 H          -5.3667    3.8789   11.3366 H       1  UNL1        0.0239
     13 H          -5.8666    4.6685    9.8356 H       1  UNL1        0.0239
     14 H          -1.9526    2.8112    9.6175 H       1  UNL1        0.0236
     15 H          -3.5582    3.0591    8.9156 H       1  UNL1        0.0236
     16 H          -3.4003    2.6210   10.6170 H       1  UNL1        0.0236
     17 H          -0.2710    4.2425    9.2732 H       1  UNL1        0.0239
     18 H           0.2159    5.9349    9.3769 H       1  UNL1        0.0239
     19 H          -0.8182    5.3956    8.0525 H       1  UNL1        0.0239
     20 H          -0.5922    8.1006    9.8152 H       1  UNL1        0.0275
     21 H          -2.0368    9.0339   10.2080 H       1  UNL1        0.0275
     22 H          -1.8482    8.3349    8.5970 H       1  UNL1        0.0275
     23 H          -4.1782    8.8543   10.9907 H       1  UNL1        0.0275
     24 H          -5.4537    7.7080   11.4039 H       1  UNL1        0.0275
     25 H          -5.1516    8.1184    9.7137 H       1  UNL1        0.0275
@<TRIPOS>BOND
     1    19     8    1
     2    22     9    1
     3    15     7    1
     4     8    17    1
     5     8    18    1
     6     8     3    1
     7    14     7    1
     8     9    20    1
     9     9     4    1
    10     9    21    1
    11    25    10    1
    12     7     2    1
    13     7    16    1
    14    13     6    1
    15     3     4    1
    16     3     2    1
    17     4     5    2
    18     2     1    1
    19     5     1    1
    20     5    10    1
    21     1     6    1
    22    10    23    1
    23    10    24    1
    24     6    12    1
    25     6    11    1
