@<TRIPOS>MOLECULE
1,2,3,4,5
 10 10 0 0 0
SMALL
GASTEIGER

@<TRIPOS>ATOM
      1 C           3.1277    0.0621    6.1321 C.2     1  UNL1       -0.0763
      2 C           1.8722    0.6124    6.4497 C.3     1  UNL1        0.0054
      3 C           1.6540    1.7277    5.5919 C.2     1  UNL1       -0.0763
      4 C           2.7535    1.8236    4.7144 C.2     1  UNL1       -0.0654
      5 C           3.6898    0.8338    5.0755 C.2     1  UNL1       -0.0654
      6 H           3.5392   -0.8515    6.5297 H       1  UNL1        0.0578
      7 H           1.1509    0.1951    7.1335 H       1  UNL1        0.0394
      8 H           0.7355    2.2858    5.5129 H       1  UNL1        0.0578
      9 H           2.8570    2.5267    3.9055 H       1  UNL1        0.0615
     10 H           4.5919    0.5939    4.5368 H       1  UNL1        0.0615
@<TRIPOS>BOND
     1     9     4    1
     2    10     5    1
     3     4     5    1
     4     4     3    2
     5     5     1    2
     6     8     3    1
     7     3     2    1
     8     1     2    1
     9     1     6    1
    10     2     7    1
