@<TRIPOS>MOLECULE
1,2,3,4,5
 25 25 0 0 0
SMALL
GASTEIGER

@<TRIPOS>ATOM
      1 C           2.9567    3.1676    5.7533 C.2     1  UNL1       -0.0477
      2 C           2.4428    2.8770    4.4640 C.2     1  UNL1       -0.0584
      3 C           1.5255    1.7965    4.5910 C.3     1  UNL1        0.0231
      4 C           1.4569    1.4425    5.9684 C.2     1  UNL1       -0.0584
      5 C           2.3468    2.2904    6.6860 C.2     1  UNL1       -0.0477
      6 C           4.1667    4.0285    5.9976 C.3     1  UNL1       -0.0395
      7 C           2.9999    3.4815    3.2020 C.3     1  UNL1       -0.0424
      8 C           0.8680    1.0195    3.4792 C.3     1  UNL1       -0.0510
      9 C           0.8178    0.1847    6.4960 C.3     1  UNL1       -0.0424
     10 C           2.8148    2.0820    8.1037 C.3     1  UNL1       -0.0395
     11 H           5.0444    3.5595    5.5447 H       1  UNL1        0.0278
     12 H           4.3674    4.1411    7.0606 H       1  UNL1        0.0278
     13 H           4.0665    5.0201    5.5550 H       1  UNL1        0.0278
     14 H           4.0467    3.1903    3.0830 H       1  UNL1        0.0275
     15 H           2.9637    4.5732    3.2302 H       1  UNL1        0.0275
     16 H           2.4602    3.1449    2.3196 H       1  UNL1        0.0275
     17 H           1.1039   -0.0415    3.5774 H       1  UNL1        0.0242
     18 H          -0.2205    1.1289    3.4883 H       1  UNL1        0.0242
     19 H           1.2345    1.3453    2.5078 H       1  UNL1        0.0242
     20 H           1.5766   -0.5943    6.6119 H       1  UNL1        0.0275
     21 H           0.0649   -0.1870    5.8043 H       1  UNL1        0.0275
     22 H           0.3434    0.3385    7.4619 H       1  UNL1        0.0275
     23 H           3.8864    1.8705    8.1098 H       1  UNL1        0.0278
     24 H           2.3104    1.2295    8.5525 H       1  UNL1        0.0278
     25 H           2.6500    2.9546    8.7404 H       1  UNL1        0.0278
@<TRIPOS>BOND
     1    16     7    1
     2    19     8    1
     3    14     7    1
     4     7    15    1
     5     7     2    1
     6     8    18    1
     7     8    17    1
     8     8     3    1
     9     2     3    1
    10     2     1    2
    11     3     4    1
    12    11     6    1
    13    13     6    1
    14     1     6    1
    15     1     5    1
    16    21     9    1
    17     4     9    1
    18     4     5    2
    19     6    12    1
    20     9    20    1
    21     9    22    1
    22     5    10    1
    23    10    23    1
    24    10    24    1
    25    10    25    1
