@<TRIPOS>MOLECULE
1,2,3,4,5
 10 10 0 0 0
SMALL
GASTEIGER

@<TRIPOS>ATOM
      1 C           1.3829    6.0661    6.1230 C.2     1  UNL1       -0.0763
      2 C           0.0097    6.2855    5.8911 C.2     1  UNL1       -0.0654
      3 C          -0.7116    5.6980    6.9443 C.2     1  UNL1       -0.0654
      4 C           0.2152    5.1260    7.8432 C.2     1  UNL1       -0.0763
      5 C           1.5100    5.3682    7.3416 C.3     1  UNL1        0.0054
      6 H           2.1920    6.5078    5.5524 H       1  UNL1        0.0578
      7 H          -0.4071    6.8975    5.1040 H       1  UNL1        0.0615
      8 H          -1.7746    5.7912    7.1082 H       1  UNL1        0.0615
      9 H          -0.0192    4.7514    8.8296 H       1  UNL1        0.0578
     10 H           2.4327    5.2051    7.8818 H       1  UNL1        0.0394
@<TRIPOS>BOND
     1     7     2    1
     2     6     1    1
     3     2     1    2
     4     2     3    1
     5     1     5    1
     6     3     8    1
     7     3     4    2
     8     5     4    1
     9     5    10    1
    10     4     9    1
