@<TRIPOS>MOLECULE
1,2,3,4,5
 10 10 0 0 0
SMALL
GASTEIGER

@<TRIPOS>ATOM
      1 C          10.6091    4.8144    4.4165 C.3     1  UNL1       -0.0235
      2 C          10.2989    4.2262    5.6682 C.3     1  UNL1       -0.0127
      3 C          10.9951    3.0052    5.7565 C.2     1  UNL1       -0.0837
      4 C          11.7502    2.8408    4.5802 C.2     1  UNL1       -0.0837
      5 C          11.5040    3.9550    3.7442 C.3     1  UNL1       -0.0127
      6 H          10.1028    5.6621    3.9742 H       1  UNL1        0.0315
      7 H           9.5483    4.5781    6.3649 H       1  UNL1        0.0352
      8 H          10.8993    2.2793    6.5537 H       1  UNL1        0.0572
      9 H          12.3032    1.9482    4.3118 H       1  UNL1        0.0572
     10 H          11.8171    4.0632    2.7127 H       1  UNL1        0.0352
@<TRIPOS>BOND
     1    10     5    1
     2     5     1    1
     3     5     4    1
     4     6     1    1
     5     9     4    1
     6     1     2    1
     7     4     3    2
     8     2     3    1
     9     2     7    1
    10     3     8    1
