@<TRIPOS>MOLECULE
1,2,3,4,5
 10 10 0 0 0
SMALL
GASTEIGER

@<TRIPOS>ATOM
      1 C           1.8096    5.6385    6.8615 C.2     1  UNL1       -0.0763
      2 C           0.9890    4.5346    7.1788 C.3     1  UNL1        0.0054
      3 C           1.1830    4.2321    8.5436 C.2     1  UNL1       -0.0763
      4 C           2.1443    5.1212    9.0585 C.2     1  UNL1       -0.0654
      5 C           2.5468    5.9835    8.0118 C.2     1  UNL1       -0.0654
      6 H           1.7753    6.2101    5.9432 H       1  UNL1        0.0578
      7 H           0.2395    4.0862    6.5358 H       1  UNL1        0.0394
      8 H           0.6210    3.5040    9.1142 H       1  UNL1        0.0578
      9 H           2.4232    5.2192   10.1008 H       1  UNL1        0.0615
     10 H           3.1645    6.8638    8.1256 H       1  UNL1        0.0615
@<TRIPOS>BOND
     1     6     1    1
     2     7     2    1
     3     1     2    1
     4     1     5    2
     5     2     3    1
     6     5    10    1
     7     5     4    1
     8     3     4    2
     9     3     8    1
    10     4     9    1
