@<TRIPOS>MOLECULE
1,2,3,4,5
 10 10 0 0 0
SMALL
GASTEIGER

@<TRIPOS>ATOM
      1 C           5.0391    3.7479    5.5465 C.3     1  UNL1        0.0054
      2 C           4.5351    2.4263    5.4799 C.2     1  UNL1       -0.0763
      3 C           3.2270    2.4907    4.9630 C.2     1  UNL1       -0.0654
      4 C           2.9097    3.8365    4.7271 C.2     1  UNL1       -0.0654
      5 C           4.0262    4.6205    5.0839 C.2     1  UNL1       -0.0763
      6 H           6.0703    4.0198    5.7171 H       1  UNL1        0.0394
      7 H           5.0934    1.5173    5.6724 H       1  UNL1        0.0578
      8 H           2.6046    1.6418    4.7138 H       1  UNL1        0.0615
      9 H           2.0122    4.1918    4.2376 H       1  UNL1        0.0615
     10 H           4.1509    5.6740    4.8725 H       1  UNL1        0.0578
@<TRIPOS>BOND
     1     9     4    1
     2     8     3    1
     3     4     3    1
     4     4     5    2
     5    10     5    1
     6     3     2    2
     7     5     1    1
     8     2     1    1
     9     2     7    1
    10     1     6    1
