@<TRIPOS>MOLECULE
1,3,5,7,9
 10 10 0 0 0
SMALL
GASTEIGER

@<TRIPOS>ATOM
      1 C          -1.4525    9.6675    2.0208 C.2     1  UNL1       -0.0763
      2 H          -1.7195   10.7076    1.8938 H       1  UNL1        0.0578
      3 C          -2.3061    8.6496    2.5013 C.3     1  UNL1        0.0054
      4 H          -3.3520    8.7761    2.7558 H       1  UNL1        0.0394
      5 C          -1.6469    7.4057    2.2931 C.2     1  UNL1       -0.0763
      6 H          -2.0871    6.4229    2.3927 H       1  UNL1        0.0578
      7 C          -0.3977    7.6773    1.7061 C.2     1  UNL1       -0.0654
      8 H           0.3020    6.9425    1.3348 H       1  UNL1        0.0615
      9 C          -0.2722    9.0692    1.5557 C.2     1  UNL1       -0.0654
     10 H           0.5344    9.5746    1.0431 H       1  UNL1        0.0615
@<TRIPOS>BOND
     1    10     9    1
     2     8     7    1
     3     9     7    1
     4     9     1    2
     5     7     5    2
     6     2     1    1
     7     1     3    1
     8     5     6    1
     9     5     3    1
    10     3     4    1
