@<TRIPOS>MOLECULE
1,3,5,7,9
 10 10 0 0 0
SMALL
GASTEIGER

@<TRIPOS>ATOM
      1 C           7.9962   10.7544    3.5796 C.2     1  UNL1       -0.0763
      2 H           6.9906   11.0456    3.8522 H       1  UNL1        0.0578
      3 C           8.6594    9.5821    4.0099 C.3     1  UNL1        0.0054
      4 H           8.2662    8.8509    4.7038 H       1  UNL1        0.0394
      5 C           9.8468    9.4534    3.2587 C.2     1  UNL1       -0.0763
      6 H          10.5110    8.5977    3.2698 H       1  UNL1        0.0578
      7 C           9.9184   10.5435    2.3620 C.2     1  UNL1       -0.0654
      8 H          10.6490   10.6619    1.5693 H       1  UNL1        0.0615
      9 C           8.7574   11.3230    2.5401 C.2     1  UNL1       -0.0654
     10 H           8.4350   12.1391    1.9075 H       1  UNL1        0.0615
@<TRIPOS>BOND
     1     8     7    1
     2    10     9    1
     3     7     9    1
     4     7     5    2
     5     9     1    2
     6     5     6    1
     7     5     3    1
     8     1     2    1
     9     1     3    1
    10     3     4    1
