@<TRIPOS>MOLECULE
1,3,5,7,9
 10 10 0 0 0
SMALL
GASTEIGER

@<TRIPOS>ATOM
      1 C           9.6335   13.8285    4.1422 C.2     1  UNL1       -0.0763
      2 H           8.6321   14.1964    3.9546 H       1  UNL1        0.0578
      3 C          10.3010   13.8599    5.3906 C.3     1  UNL1        0.0054
      4 H           9.8827   14.2302    6.3167 H       1  UNL1        0.0394
      5 C          11.6447   13.4959    5.1715 C.2     1  UNL1       -0.0763
      6 H          12.4446   13.5419    5.8965 H       1  UNL1        0.0578
      7 C          11.8135   13.2539    3.7901 C.2     1  UNL1       -0.0654
      8 H          12.7587   13.0846    3.2894 H       1  UNL1        0.0615
      9 C          10.5823   13.4820    3.1551 C.2     1  UNL1       -0.0654
     10 H          10.4340   13.5241    2.0848 H       1  UNL1        0.0615
@<TRIPOS>BOND
     1    10     9    1
     2     9     7    1
     3     9     1    2
     4     8     7    1
     5     7     5    2
     6     2     1    1
     7     1     3    1
     8     5     3    1
     9     5     6    1
    10     3     4    1
