@<TRIPOS>MOLECULE
1,3,5,7,9
 10 10 0 0 0
SMALL
GASTEIGER

@<TRIPOS>ATOM
      1 C          -1.8222   10.7754    4.7429 C.2     1  UNL1       -0.0654
      2 H          -2.6624   11.1978    4.2080 H       1  UNL1        0.0615
      3 C          -1.9163    9.9508    5.8794 C.2     1  UNL1       -0.0654
      4 H          -2.8338    9.7049    6.3976 H       1  UNL1        0.0615
      5 C          -0.6120    9.7685    6.3929 C.2     1  UNL1       -0.0763
      6 H          -0.3687    9.3294    7.3504 H       1  UNL1        0.0578
      7 C           0.2879   10.4625    5.5531 C.3     1  UNL1        0.0054
      8 H           1.3399   10.6202    5.7559 H       1  UNL1        0.0394
      9 C          -0.4648   11.0773    4.5279 C.2     1  UNL1       -0.0763
     10 H          -0.0902   11.7880    3.8047 H       1  UNL1        0.0578
@<TRIPOS>BOND
     1    10     9    1
     2     2     1    1
     3     9     1    2
     4     9     7    1
     5     1     3    1
     6     7     8    1
     7     7     5    1
     8     3     5    2
     9     3     4    1
    10     5     6    1
