@<TRIPOS>MOLECULE
1,3,5,7,9
 10 10 0 0 0
SMALL
GASTEIGER

@<TRIPOS>ATOM
      1 C           4.4274    1.4800    3.1446 C.3     1  UNL1       -0.0235
      2 H           4.7661    1.4989    2.1146 H       1  UNL1        0.0315
      3 C           3.0822    1.3487    3.5642 C.3     1  UNL1       -0.0127
      4 H           2.2205    1.2742    2.9127 H       1  UNL1        0.0352
      5 C           3.0796    1.1090    4.9497 C.2     1  UNL1       -0.0837
      6 H           2.2184    0.8500    5.5486 H       1  UNL1        0.0572
      7 C           4.4125    1.0785    5.3922 C.2     1  UNL1       -0.0837
      8 H           4.7348    0.8102    6.3872 H       1  UNL1        0.0572
      9 C           5.2526    1.3117    4.2870 C.3     1  UNL1       -0.0127
     10 H           6.3282    1.1999    4.2917 H       1  UNL1        0.0352
@<TRIPOS>BOND
     1     2     1    1
     2     4     3    1
     3     1     3    1
     4     1     9    1
     5     3     5    1
     6     9    10    1
     7     9     7    1
     8     5     7    2
     9     5     6    1
    10     7     8    1
