@<TRIPOS>MOLECULE
1,3,5,7,9
 10 10 0 0 0
SMALL
GASTEIGER

@<TRIPOS>ATOM
      1 C           2.0768    4.3957    3.1491 C.2     1  UNL1       -0.0837
      2 H           1.0386    4.1026    3.2417 H       1  UNL1        0.0572
      3 C           2.6926    5.4626    3.8420 C.3     1  UNL1       -0.0127
      4 H           2.2146    6.1142    4.5606 H       1  UNL1        0.0352
      5 C           3.9747    5.6632    3.2816 C.3     1  UNL1       -0.0235
      6 H           4.6460    6.4828    3.5009 H       1  UNL1        0.0315
      7 C           4.1477    4.7172    2.2426 C.3     1  UNL1       -0.0127
      8 H           4.9677    4.7086    1.5354 H       1  UNL1        0.0352
      9 C           2.9642    3.9623    2.1447 C.2     1  UNL1       -0.0837
     10 H           2.7361    3.2530    1.3602 H       1  UNL1        0.0572
@<TRIPOS>BOND
     1    10     9    1
     2     8     7    1
     3     9     7    1
     4     9     1    2
     5     7     5    1
     6     1     2    1
     7     1     3    1
     8     5     6    1
     9     5     3    1
    10     3     4    1
