@<TRIPOS>MOLECULE
1,3,5,7,9
 10 10 0 0 0
SMALL
GASTEIGER

@<TRIPOS>ATOM
      1 C          -2.7930   11.1086    4.7847 C.2     1  UNL1       -0.0654
      2 H          -3.0177   11.8815    5.5071 H       1  UNL1        0.0615
      3 C          -3.5073    9.9073    4.6126 C.2     1  UNL1       -0.0763
      4 H          -4.3969    9.6259    5.1594 H       1  UNL1        0.0578
      5 C          -3.0131    9.2688    3.4515 C.3     1  UNL1        0.0054
      6 H          -3.4583    8.4114    2.9607 H       1  UNL1        0.0394
      7 C          -1.9738   10.0765    2.9242 C.2     1  UNL1       -0.0763
      8 H          -1.4811    9.9443    1.9693 H       1  UNL1        0.0578
      9 C          -1.8321   11.2043    3.7643 C.2     1  UNL1       -0.0654
     10 H          -1.1959   12.0562    3.5659 H       1  UNL1        0.0615
@<TRIPOS>BOND
     1     8     7    1
     2     7     5    1
     3     7     9    2
     4     6     5    1
     5     5     3    1
     6    10     9    1
     7     9     1    1
     8     3     1    2
     9     3     4    1
    10     1     2    1
