@<TRIPOS>MOLECULE
1,3,5,7,9
 10 10 0 0 0
SMALL
GASTEIGER

@<TRIPOS>ATOM
      1 C           1.8435   13.2180    3.7394 C.2     1  UNL1       -0.0763
      2 H           1.2639   13.5798    2.8992 H       1  UNL1        0.0578
      3 C           2.3209   11.8988    3.9065 C.2     1  UNL1       -0.0654
      4 H           2.1831   11.0790    3.2098 H       1  UNL1        0.0615
      5 C           2.8202   11.7866    5.2248 C.2     1  UNL1       -0.0654
      6 H           3.0938   10.8576    5.7051 H       1  UNL1        0.0615
      7 C           2.7006   13.0456    5.8529 C.2     1  UNL1       -0.0763
      8 H           2.9135   13.2744    6.8878 H       1  UNL1        0.0578
      9 C           2.0794   13.9225    4.9383 C.3     1  UNL1        0.0054
     10 H           1.7248   14.9167    5.1740 H       1  UNL1        0.0394
@<TRIPOS>BOND
     1     2     1    1
     2     4     3    1
     3     1     3    2
     4     1     9    1
     5     3     5    1
     6     9    10    1
     7     9     7    1
     8     5     6    1
     9     5     7    2
    10     7     8    1
