@<TRIPOS>MOLECULE
1,3,5,7,9
 10 10 0 0 0
SMALL
GASTEIGER

@<TRIPOS>ATOM
      1 C          -0.5080   10.5823    6.8278 C.3     1  UNL1        0.0054
      2 H          -0.3598   11.6427    6.6577 H       1  UNL1        0.0394
      3 C          -1.6965    9.9642    7.2861 C.2     1  UNL1       -0.0763
      4 H          -2.6160   10.4712    7.5511 H       1  UNL1        0.0578
      5 C          -1.4093    8.6108    7.5524 C.2     1  UNL1       -0.0654
      6 H          -2.0734    7.9025    8.0306 H       1  UNL1        0.0615
      7 C          -0.0457    8.3924    7.2828 C.2     1  UNL1       -0.0654
      8 H           0.4941    7.4800    7.4920 H       1  UNL1        0.0615
      9 C           0.5162    9.6028    6.8337 C.2     1  UNL1       -0.0763
     10 H           1.5700    9.7863    6.6686 H       1  UNL1        0.0578
@<TRIPOS>BOND
     1     2     1    1
     2    10     9    1
     3     1     9    1
     4     1     3    1
     5     9     7    2
     6     7     8    1
     7     7     5    1
     8     3     4    1
     9     3     5    2
    10     5     6    1
