@<TRIPOS>MOLECULE
1,3,5,7,9
 10 10 0 0 0
SMALL
GASTEIGER

@<TRIPOS>ATOM
      1 C           2.1476    4.8277    3.5270 C.2     1  UNL1       -0.0763
      2 H           1.1368    4.5379    3.7824 H       1  UNL1        0.0578
      3 C           2.8106    5.9892    3.9839 C.3     1  UNL1        0.0054
      4 H           2.4118    6.7109    4.6843 H       1  UNL1        0.0394
      5 C           4.0078    6.1249    3.2490 C.2     1  UNL1       -0.0763
      6 H           4.6747    6.9779    3.2792 H       1  UNL1        0.0578
      7 C           4.0809    5.0526    2.3307 C.2     1  UNL1       -0.0654
      8 H           4.8195    4.9462    1.5441 H       1  UNL1        0.0615
      9 C           2.9164    4.2755    2.4836 C.2     1  UNL1       -0.0654
     10 H           2.5984    3.4707    1.8345 H       1  UNL1        0.0615
@<TRIPOS>BOND
     1     8     7    1
     2    10     9    1
     3     7     9    1
     4     7     5    2
     5     9     1    2
     6     5     6    1
     7     5     3    1
     8     1     2    1
     9     1     3    1
    10     3     4    1
