@<TRIPOS>MOLECULE
1,3,5,7,9
 10 10 0 0 0
SMALL
GASTEIGER

@<TRIPOS>ATOM
      1 C           3.7805    1.7672    4.0404 C.2     1  UNL1       -0.0763
      2 H           2.7766    1.4240    3.8202 H       1  UNL1        0.0578
      3 C           4.7592    2.1209    3.0848 C.2     1  UNL1       -0.0654
      4 H           4.6327    2.1174    2.0110 H       1  UNL1        0.0615
      5 C           5.9826    2.2917    3.7513 C.2     1  UNL1       -0.0654
      6 H           6.9425    2.4472    3.2761 H       1  UNL1        0.0615
      7 C           5.7781    2.0040    5.1189 C.2     1  UNL1       -0.0763
      8 H           6.5620    1.9099    5.8553 H       1  UNL1        0.0578
      9 C           4.4220    1.6773    5.3009 C.3     1  UNL1        0.0054
     10 H           3.9759    1.2885    6.2061 H       1  UNL1        0.0394
@<TRIPOS>BOND
     1     4     3    1
     2     3     5    1
     3     3     1    2
     4     6     5    1
     5     5     7    2
     6     2     1    1
     7     1     9    1
     8     7     9    1
     9     7     8    1
    10     9    10    1
