@<TRIPOS>MOLECULE
1,3,5,7,9
 10 10 0 0 0
SMALL
GASTEIGER

@<TRIPOS>ATOM
      1 C          -0.7535   -0.4586    3.9406 C.2     1  UNL1       -0.0763
      2 H          -0.8588   -0.5416    2.8654 H       1  UNL1        0.0578
      3 C          -1.4319    0.4601    4.7732 C.3     1  UNL1        0.0054
      4 H          -2.1254    1.2213    4.4420 H       1  UNL1        0.0394
      5 C          -1.2062    0.0775    6.1174 C.2     1  UNL1       -0.0763
      6 H          -1.6957    0.5052    6.9863 H       1  UNL1        0.0578
      7 C          -0.4048   -1.0787    6.1198 C.2     1  UNL1       -0.0654
      8 H          -0.1644   -1.6735    6.9889 H       1  UNL1        0.0615
      9 C          -0.1067   -1.4048    4.7807 C.2     1  UNL1       -0.0654
     10 H           0.3772   -2.3132    4.4398 H       1  UNL1        0.0615
@<TRIPOS>BOND
     1     2     1    1
     2     1     3    1
     3     1     9    2
     4    10     9    1
     5     4     3    1
     6     3     5    1
     7     9     7    1
     8     5     7    2
     9     5     6    1
    10     7     8    1
