@<TRIPOS>MOLECULE
1,2,3,4,5
 10 10 0 0 0
SMALL
GASTEIGER

@<TRIPOS>ATOM
      1 C           1.8739    2.7579    0.0604 C.2     1  UNL1       -0.0763
      2 C           1.9215    1.5672    0.8052 C.2     1  UNL1       -0.0654
      3 C           2.5022    1.8579    2.0579 C.2     1  UNL1       -0.0654
      4 C           2.8349    3.2235    2.0760 C.2     1  UNL1       -0.0763
      5 C           2.4311    3.7884    0.8522 C.3     1  UNL1        0.0054
      6 H           1.5870    2.8272   -0.9811 H       1  UNL1        0.0578
      7 H           1.6528    0.5893    0.4278 H       1  UNL1        0.0615
      8 H           2.7852    1.1320    2.8107 H       1  UNL1        0.0615
      9 H           3.4084    3.7250    2.8449 H       1  UNL1        0.0578
     10 H           2.6499    4.7934    0.5154 H       1  UNL1        0.0394
@<TRIPOS>BOND
     1     6     1    1
     2     1     2    2
     3     1     5    1
     4     7     2    1
     5    10     5    1
     6     2     3    1
     7     5     4    1
     8     3     4    2
     9     3     8    1
    10     4     9    1
