@<TRIPOS>MOLECULE
1,2,3,4,5
 10 10 0 0 0
SMALL
GASTEIGER

@<TRIPOS>ATOM
      1 C           0.6934    5.2240    2.7940 C.2     1  UNL1       -0.0763
      2 C          -0.6144    5.1142    2.2712 C.2     1  UNL1       -0.0654
      3 C          -1.3349    4.2220    3.0988 C.2     1  UNL1       -0.0654
      4 C          -0.4748    3.7878    4.1192 C.2     1  UNL1       -0.0763
      5 C           0.7839    4.3846    3.9217 C.3     1  UNL1        0.0054
      6 H           1.4374    5.9422    2.4747 H       1  UNL1        0.0578
      7 H          -1.0326    5.7317    1.4893 H       1  UNL1        0.0615
      8 H          -2.3897    3.9901    3.0078 H       1  UNL1        0.0615
      9 H          -0.7576    3.2063    4.9870 H       1  UNL1        0.0578
     10 H           1.6157    4.3286    4.6127 H       1  UNL1        0.0394
@<TRIPOS>BOND
     1     7     2    1
     2     2     1    2
     3     2     3    1
     4     6     1    1
     5     1     5    1
     6     8     3    1
     7     3     4    2
     8     5     4    1
     9     5    10    1
    10     4     9    1
