@<TRIPOS>MOLECULE
3,4,5,7,8
 40 41 0 0 0
SMALL
GASTEIGER

@<TRIPOS>ATOM
      1 SI          2.3125   12.5537   14.5522 Si      1  UNL1        0.0000
      2 SI          4.8024   14.7424   19.2958 Si      1  UNL1        0.0000
      3 C           1.4139   13.8344   17.0741 C.ar    1  UNL1        0.0000
      4 C           2.4137   13.1080   16.3412 C.3     1  UNL1        0.0000
      5 C           3.6204   13.2832   17.0711 C.2     1  UNL1        0.0000
      6 H           4.5953   12.9969   16.6989 H       1  UNL1        0.0000
      7 C           3.4201   14.0169   18.2572 C.2     1  UNL1        0.0000
      8 C           2.0301   14.3831   18.2605 C.ar    1  UNL1        0.0000
      9 C           1.2959   15.2541   19.0786 C.ar    1  UNL1        0.0000
     10 H           1.7576   15.6933   19.9521 H       1  UNL1        0.0000
     11 C           0.0072   15.5854   18.7297 C.ar    1  UNL1        0.0000
     12 H          -0.5575   16.2727   19.3427 H       1  UNL1        0.0000
     13 C          -0.5864   15.0664   17.5702 C.ar    1  UNL1        0.0000
     14 H          -1.5926   15.3695   17.3147 H       1  UNL1        0.0000
     15 C           0.0986   14.2006   16.7482 C.ar    1  UNL1        0.0000
     16 H          -0.3522   13.8387   15.8324 H       1  UNL1        0.0000
     17 C           0.9458   11.2285   14.3056 C.3     1  UNL1        0.0000
     18 H           1.1292   10.3555   14.9271 H       1  UNL1        0.0000
     19 H           0.9052   10.8958   13.2727 H       1  UNL1        0.0000
     20 H          -0.0351   11.6181   14.5598 H       1  UNL1        0.0000
     21 C           3.9773   11.7837   14.0169 C.3     1  UNL1        0.0000
     22 H           3.9218   11.4167   12.9969 H       1  UNL1        0.0000
     23 H           4.2574   10.9485   14.6518 H       1  UNL1        0.0000
     24 H           4.7795   12.5137   14.0560 H       1  UNL1        0.0000
     25 C           1.9232   14.0346   13.4054 C.3     1  UNL1        0.0000
     26 H           1.8251   13.7184   12.3712 H       1  UNL1        0.0000
     27 H           2.7119   14.7794   13.4491 H       1  UNL1        0.0000
     28 H           0.9989   14.5280   13.6887 H       1  UNL1        0.0000
     29 C           6.4094   13.7957   18.8843 C.3     1  UNL1        0.0000
     30 H           7.2183   14.0985   19.5411 H       1  UNL1        0.0000
     31 H           6.7320   13.9830   17.8654 H       1  UNL1        0.0000
     32 H           6.2757   12.7235   18.9986 H       1  UNL1        0.0000
     33 C           5.0166   16.5910   18.8503 C.3     1  UNL1        0.0000
     34 H           5.8335   17.0415   19.4058 H       1  UNL1        0.0000
     35 H           4.1159   17.1551   19.0720 H       1  UNL1        0.0000
     36 H           5.2261   16.7187   17.7926 H       1  UNL1        0.0000
     37 C           4.5385   14.6193   21.1871 C.3     1  UNL1        0.0000
     38 H           3.5684   14.9994   21.4919 H       1  UNL1        0.0000
     39 H           5.2916   15.2009   21.7108 H       1  UNL1        0.0000
     40 H           4.6181   13.5944   21.5377 H       1  UNL1        0.0000
@<TRIPOS>BOND
     1    26    25    1
     2    22    21    1
     3    19    17    1
     4    25    27    1
     5    25    28    1
     6    25     1    1
     7    21    24    1
     8    21     1    1
     9    21    23    1
    10    17     1    1
    11    17    20    1
    12    17    18    1
    13     1     4    1
    14    16    15    1
    15     4     5    1
    16     4     3    1
    17     6     5    1
    18    15     3   ar
    19    15    13   ar
    20     5     7    2
    21     3     8   ar
    22    14    13    1
    23    13    11   ar
    24    36    33    1
    25    31    29    1
    26     7     8    1
    27     7     2    1
    28     8     9   ar
    29    11     9   ar
    30    11    12    1
    31    33    35    1
    32    33     2    1
    33    33    34    1
    34    29    32    1
    35    29     2    1
    36    29    30    1
    37     9    10    1
    38     2    37    1
    39    37    38    1
    40    37    40    1
    41    37    39    1
