@<TRIPOS>MOLECULE
2,3,4,6,8
 34 35 0 0 0
SMALL
GASTEIGER

@<TRIPOS>ATOM
      1 SI          3.7603    7.5837    1.4391 Si      1  UNL1        0.0000
      2 C           2.4440    8.4337    4.0510 C.ar    1  UNL1        0.0000
      3 C           2.8145    7.4515    3.0626 C.3     1  UNL1        0.0000
      4 C           2.7660    6.1910    3.7359 C.3     1  UNL1        0.0000
      5 H           3.1422    5.2663    3.3192 H       1  UNL1        0.0000
      6 C           2.3245    6.3427    5.0515 C.3     1  UNL1        0.0000
      7 H           2.3236    5.5744    5.8107 H       1  UNL1        0.0000
      8 C           2.1258    7.7371    5.2772 C.ar    1  UNL1        0.0000
      9 C           1.8252    8.4356    6.4667 C.ar    1  UNL1        0.0000
     10 C           1.8443    9.8096    6.4213 C.ar    1  UNL1        0.0000
     11 H           1.6352   10.3812    7.3153 H       1  UNL1        0.0000
     12 C           2.1572   10.4953    5.2393 C.ar    1  UNL1        0.0000
     13 H           2.1844   11.5770    5.2691 H       1  UNL1        0.0000
     14 C           2.4526    9.8484    4.0595 C.ar    1  UNL1        0.0000
     15 C           2.9126    8.6078    0.0479 C.3     1  UNL1        0.0000
     16 H           3.2600    9.6357    0.0293 H       1  UNL1        0.0000
     17 H           1.8288    8.6211    0.1432 H       1  UNL1        0.0000
     18 H           3.1427    8.1768   -0.9219 H       1  UNL1        0.0000
     19 C           3.9624    5.8158    0.7313 C.3     1  UNL1        0.0000
     20 H           3.0105    5.3012    0.6380 H       1  UNL1        0.0000
     21 H           4.6075    5.2087    1.3587 H       1  UNL1        0.0000
     22 H           4.4143    5.8477   -0.2556 H       1  UNL1        0.0000
     23 C           5.5381    8.2514    1.6922 C.3     1  UNL1        0.0000
     24 H           6.0286    7.7420    2.5163 H       1  UNL1        0.0000
     25 H           5.5623    9.3143    1.9099 H       1  UNL1        0.0000
     26 H           6.1377    8.0896    0.8011 H       1  UNL1        0.0000
     27 C           1.5543    7.6862    7.7379 C.3     1  UNL1        0.0000
     28 H           1.2249    8.3645    8.5222 H       1  UNL1        0.0000
     29 H           2.4620    7.1855    8.0765 H       1  UNL1        0.0000
     30 H           0.7917    6.9225    7.5850 H       1  UNL1        0.0000
     31 C           2.8088   10.6485    2.8429 C.3     1  UNL1        0.0000
     32 H           3.8496   10.4823    2.5729 H       1  UNL1        0.0000
     33 H           2.6713   11.7122    3.0303 H       1  UNL1        0.0000
     34 H           2.1966   10.3592    1.9922 H       1  UNL1        0.0000
@<TRIPOS>BOND
     1    18    15    1
     2    22    19    1
     3    16    15    1
     4    15    17    1
     5    15     1    1
     6    20    19    1
     7    19    21    1
     8    19     1    1
     9    26    23    1
    10     1    23    1
    11     1     3    1
    12    23    25    1
    13    23    24    1
    14    34    31    1
    15    32    31    1
    16    31    33    1
    17    31    14    1
    18     3     4    1
    19     3     2    1
    20     5     4    1
    21     4     6    1
    22     2    14   ar
    23     2     8   ar
    24    14    12   ar
    25     6     8    1
    26     6     7    1
    27    12    13    1
    28    12    10   ar
    29     8     9   ar
    30    10     9   ar
    31    10    11    1
    32     9    27    1
    33    30    27    1
    34    27    29    1
    35    27    28    1
