@<TRIPOS>MOLECULE
2,3,4,6,8
 25 26 0 0 0
SMALL
GASTEIGER

@<TRIPOS>ATOM
      1 SI          4.5811    1.4711    3.9094 Si      1  UNL1        0.0000
      2 C           3.8036    4.0553    5.0925 C.ar    1  UNL1        0.0000
      3 C           4.8365    3.1592    4.6693 C.3     1  UNL1        0.0000
      4 C           6.0266    3.9403    4.6043 C.3     1  UNL1        0.0000
      5 H           6.9562    3.6002    4.1641 H       1  UNL1        0.0000
      6 C           5.7826    5.2510    5.0350 C.3     1  UNL1        0.0000
      7 H           6.4720    6.0797    4.9639 H       1  UNL1        0.0000
      8 C           4.3938    5.3493    5.3461 C.ar    1  UNL1        0.0000
      9 C           3.5721    6.4306    5.7069 C.ar    1  UNL1        0.0000
     10 H           4.0042    7.4074    5.8836 H       1  UNL1        0.0000
     11 C           2.2129    6.2414    5.7876 C.ar    1  UNL1        0.0000
     12 H           1.5680    7.0693    6.0475 H       1  UNL1        0.0000
     13 C           1.6348    4.9924    5.5089 C.ar    1  UNL1        0.0000
     14 H           0.5581    4.8960    5.5476 H       1  UNL1        0.0000
     15 C           2.4100    3.9093    5.1693 C.ar    1  UNL1        0.0000
     16 H           1.9531    2.9585    4.9230 H       1  UNL1        0.0000
     17 C           3.5761    1.5954    2.2937 C.3     1  UNL1        0.0000
     18 H           4.1049    2.1787    1.5452 H       1  UNL1        0.0000
     19 H           2.6168    2.0761    2.4581 H       1  UNL1        0.0000
     20 H           3.3856    0.6131    1.8718 H       1  UNL1        0.0000
     21 C           6.2627    0.6646    3.5311 C.3     1  UNL1        0.0000
     22 H           6.8841    0.5975    4.4188 H       1  UNL1        0.0000
     23 H           6.8126    1.2280    2.7831 H       1  UNL1        0.0000
     24 H           6.1287   -0.3410    3.1460 H       1  UNL1        0.0000
     25 H           3.8303    0.5692    4.8325 H       1  UNL1        0.0000
@<TRIPOS>BOND
     1    18    17    1
     2    20    17    1
     3    17    19    1
     4    17     1    1
     5    23    21    1
     6    24    21    1
     7    21     1    1
     8    21    22    1
     9     1     3    1
    10     1    25    1
    11     5     4    1
    12     4     3    1
    13     4     6    1
    14     3     2    1
    15    16    15    1
    16     7     6    1
    17     6     8    1
    18     2    15   ar
    19     2     8   ar
    20    15    13   ar
    21     8     9   ar
    22    13    14    1
    23    13    11   ar
    24     9    11   ar
    25     9    10    1
    26    11    12    1
