@<TRIPOS>MOLECULE
1,2,3,4,5
 25 25 0 0 0
SMALL
GASTEIGER

@<TRIPOS>ATOM
      1 C          12.2560   -0.2773    7.0673 C.3     1  UNL1        0.0052
      2 C          12.7126    0.0579    8.3891 C.2     1  UNL1       -0.0658
      3 C          12.9265    1.4554    8.4367 C.2     1  UNL1       -0.0658
      4 C          12.5773    2.0025    7.1553 C.3     1  UNL1        0.0052
      5 C          12.2142    0.9204    6.3006 C.3     1  UNL1       -0.0053
      6 C          12.1702   -1.6621    6.5037 C.3     1  UNL1       -0.0545
      7 H          11.4531   -1.7087    5.6865 H       1  UNL1        0.0239
      8 H          11.8733   -2.3810    7.2631 H       1  UNL1        0.0239
      9 H          13.1440   -1.9660    6.1131 H       1  UNL1        0.0239
     10 C          13.0927   -0.9026    9.4708 C.3     1  UNL1       -0.0430
     11 H          14.1795   -0.9823    9.5349 H       1  UNL1        0.0275
     12 H          12.6927   -1.8933    9.2741 H       1  UNL1        0.0275
     13 H          12.7202   -0.5673   10.4367 H       1  UNL1        0.0275
     14 C          13.5328    2.2127    9.5756 C.3     1  UNL1       -0.0430
     15 H          13.3458    1.7055   10.5189 H       1  UNL1        0.0275
     16 H          13.1234    3.2181    9.6390 H       1  UNL1        0.0275
     17 H          14.6129    2.2937    9.4374 H       1  UNL1        0.0275
     18 C          12.7908    3.4200    6.7269 C.3     1  UNL1       -0.0545
     19 H          13.8115    3.5585    6.3652 H       1  UNL1        0.0239
     20 H          12.6280    4.1026    7.5571 H       1  UNL1        0.0239
     21 H          12.1042    3.6867    5.9277 H       1  UNL1        0.0239
     22 C          11.9993    1.0177    4.8238 C.3     1  UNL1       -0.0574
     23 H          11.5230    1.9586    4.5610 H       1  UNL1        0.0236
     24 H          11.3756    0.2055    4.4622 H       1  UNL1        0.0236
     25 H          12.9600    0.9653    4.3074 H       1  UNL1        0.0236
@<TRIPOS>BOND
     1    25    22    1
     2    24    22    1
     3    23    22    1
     4    22     5    1
     5     7     6    1
     6    21    18    1
     7     9     6    1
     8     5     1    1
     9     5     4    1
    10    19    18    1
    11     6     1    1
    12     6     8    1
    13    18     4    1
    14    18    20    1
    15     1     2    1
    16     4     3    1
    17     2     3    2
    18     2    10    1
    19     3    14    1
    20    12    10    1
    21    17    14    1
    22    10    11    1
    23    10    13    1
    24    14    16    1
    25    14    15    1
