@<TRIPOS>MOLECULE
1,2,3,4,5
 25 25 0 0 0
SMALL
GASTEIGER

@<TRIPOS>ATOM
      1 C           0.9086    1.4400    1.6297 C.2     1  UNL1       -0.0658
      2 C          -0.2683    1.8496    0.9398 C.3     1  UNL1        0.0052
      3 C           0.1353    2.4755   -0.2863 C.3     1  UNL1       -0.0053
      4 C           1.5591    2.5259   -0.3065 C.3     1  UNL1        0.0052
      5 C           2.0327    1.9160    0.9003 C.2     1  UNL1       -0.0658
      6 C           0.9941    0.6384    2.8812 C.3     1  UNL1       -0.0430
      7 H           1.5963   -0.2542    2.7121 H       1  UNL1        0.0275
      8 H           0.0084    0.3410    3.2282 H       1  UNL1        0.0275
      9 H           1.4730    1.2228    3.6721 H       1  UNL1        0.0275
     10 C          -1.6639    1.4151    1.2662 C.3     1  UNL1       -0.0545
     11 H          -1.8497    0.4205    0.8556 H       1  UNL1        0.0239
     12 H          -2.3934    2.0994    0.8401 H       1  UNL1        0.0239
     13 H          -1.8207    1.3797    2.3419 H       1  UNL1        0.0239
     14 C          -0.7706    2.8222   -1.4261 C.3     1  UNL1       -0.0574
     15 H          -0.3425    3.6120   -2.0384 H       1  UNL1        0.0236
     16 H          -1.7413    3.1566   -1.0683 H       1  UNL1        0.0236
     17 H          -0.9243    1.9448   -2.0572 H       1  UNL1        0.0236
     18 C           2.4038    2.9255   -1.4766 C.3     1  UNL1       -0.0545
     19 H           2.5385    2.0712   -2.1428 H       1  UNL1        0.0239
     20 H           3.3851    3.2638   -1.1539 H       1  UNL1        0.0239
     21 H           1.9353    3.7274   -2.0420 H       1  UNL1        0.0239
     22 C           3.4537    1.6136    1.2544 C.3     1  UNL1       -0.0430
     23 H           3.6101    1.7442    2.3233 H       1  UNL1        0.0275
     24 H           4.1384    2.2692    0.7234 H       1  UNL1        0.0275
     25 H           3.6956    0.5808    0.9966 H       1  UNL1        0.0275
@<TRIPOS>BOND
     1    19    18    1
     2    17    14    1
     3    21    18    1
     4    15    14    1
     5    18    20    1
     6    18     4    1
     7    14    16    1
     8    14     3    1
     9     4     3    1
    10     4     5    1
    11     3     2    1
    12    24    22    1
    13    12    10    1
    14    11    10    1
    15     5    22    1
    16     5     1    2
    17     2    10    1
    18     2     1    1
    19    25    22    1
    20    22    23    1
    21    10    13    1
    22     1     6    1
    23     7     6    1
    24     6     8    1
    25     6     9    1
