@<TRIPOS>MOLECULE
1,2,3,4,5
 10 10 0 0 0
SMALL
GASTEIGER

@<TRIPOS>ATOM
      1 C          -0.1728    7.6975   15.0833 C.2     1  UNL1       -0.0654
      2 C          -1.3822    7.4813   15.7529 C.2     1  UNL1       -0.0763
      3 C          -2.2681    8.5464   15.4239 C.3     1  UNL1        0.0054
      4 C          -1.5981    9.4198   14.5495 C.2     1  UNL1       -0.0763
      5 C          -0.2791    8.9202   14.3806 C.2     1  UNL1       -0.0654
      6 H           0.6694    7.0295   15.0726 H       1  UNL1        0.0615
      7 H          -1.6318    6.6205   16.3482 H       1  UNL1        0.0578
      8 H          -3.3092    8.5983   15.6972 H       1  UNL1        0.0394
      9 H          -2.0413   10.2456   14.0187 H       1  UNL1        0.0578
     10 H           0.4442    9.3089   13.6840 H       1  UNL1        0.0615
@<TRIPOS>BOND
     1    10     5    1
     2     9     4    1
     3     5     4    2
     4     5     1    1
     5     4     3    1
     6     6     1    1
     7     1     2    2
     8     3     8    1
     9     3     2    1
    10     2     7    1
