@<TRIPOS>MOLECULE
1,2,3,4,5
 25 25 0 0 0
SMALL
GASTEIGER

@<TRIPOS>ATOM
      1 C           6.7398   10.5337    5.6045 C.2     1  UNL1       -0.0584
      2 C           6.7518   11.1519    6.8982 C.3     1  UNL1        0.0231
      3 C           5.7441   10.5384    7.6844 C.2     1  UNL1       -0.0584
      4 C           5.1062    9.5360    6.8802 C.2     1  UNL1       -0.0477
      5 C           5.7595    9.5033    5.6180 C.2     1  UNL1       -0.0477
      6 C           7.7637   10.7562    4.5347 C.3     1  UNL1       -0.0424
      7 C           7.7641   12.1502    7.3667 C.3     1  UNL1       -0.0510
      8 C           5.5016   10.7615    9.1450 C.3     1  UNL1       -0.0424
      9 C           4.1117    8.5301    7.3720 C.3     1  UNL1       -0.0395
     10 C           5.5320    8.4930    4.5405 C.3     1  UNL1       -0.0395
     11 H           8.6504   10.1480    4.7258 H       1  UNL1        0.0275
     12 H           7.3694   10.4844    3.5587 H       1  UNL1        0.0275
     13 H           8.0672   11.8003    4.5032 H       1  UNL1        0.0275
     14 H           8.6755   11.6399    7.6846 H       1  UNL1        0.0242
     15 H           8.0207   12.8431    6.5690 H       1  UNL1        0.0242
     16 H           7.3830   12.7261    8.2058 H       1  UNL1        0.0242
     17 H           6.1139   10.0767    9.7353 H       1  UNL1        0.0275
     18 H           5.7546   11.7794    9.4310 H       1  UNL1        0.0275
     19 H           4.4587   10.5876    9.3979 H       1  UNL1        0.0275
     20 H           3.4735    8.9580    8.1416 H       1  UNL1        0.0278
     21 H           3.4797    8.1826    6.5582 H       1  UNL1        0.0278
     22 H           4.6255    7.6654    7.7971 H       1  UNL1        0.0278
     23 H           4.5003    8.1502    4.5378 H       1  UNL1        0.0278
     24 H           5.7482    8.9106    3.5602 H       1  UNL1        0.0278
     25 H           6.1816    7.6298    4.6989 H       1  UNL1        0.0278
@<TRIPOS>BOND
     1    12     6    1
     2    24    10    1
     3    13     6    1
     4     6    11    1
     5     6     1    1
     6    23    10    1
     7    10    25    1
     8    10     5    1
     9     1     5    2
    10     1     2    1
    11     5     4    1
    12    21     9    1
    13    15     7    1
    14     4     9    1
    15     4     3    2
    16     2     7    1
    17     2     3    1
    18     7    14    1
    19     7    16    1
    20     9    22    1
    21     9    20    1
    22     3     8    1
    23     8    19    1
    24     8    18    1
    25     8    17    1
