@<TRIPOS>MOLECULE
1,3,5,7,9
 10 10 0 0 0
SMALL
GASTEIGER

@<TRIPOS>ATOM
      1 C           0.8840    7.9709    5.3556 C.2     1  UNL1       -0.0763
      2 H           0.9916    8.0103    6.4327 H       1  UNL1        0.0578
      3 C           1.8880    7.5799    4.4462 C.2     1  UNL1       -0.0654
      4 H           2.8935    7.2732    4.7122 H       1  UNL1        0.0615
      5 C           1.2912    7.4592    3.1689 C.2     1  UNL1       -0.0654
      6 H           1.7631    7.0535    2.2819 H       1  UNL1        0.0615
      7 C          -0.0696    7.8036    3.2877 C.2     1  UNL1       -0.0763
      8 H          -0.8223    7.6597    2.5295 H       1  UNL1        0.0578
      9 C          -0.3220    8.1252    4.6405 C.3     1  UNL1        0.0054
     10 H          -1.3012    8.2901    5.0751 H       1  UNL1        0.0394
@<TRIPOS>BOND
     1     6     5    1
     2     8     7    1
     3     5     7    2
     4     5     3    1
     5     7     9    1
     6     3     4    1
     7     3     1    2
     8     9    10    1
     9     9     1    1
    10     1     2    1
