@<TRIPOS>MOLECULE
1,3,5,7,9
 10 10 0 0 0
SMALL
GASTEIGER

@<TRIPOS>ATOM
      1 C           1.5605   10.8848    6.0411 C.2     1  UNL1       -0.0763
      2 H           2.0562   10.4029    6.8759 H       1  UNL1        0.0578
      3 C           2.1742   11.7666    5.1232 C.2     1  UNL1       -0.0654
      4 H           3.2033   12.0861    5.1578 H       1  UNL1        0.0615
      5 C           1.1622   12.3415    4.3292 C.2     1  UNL1       -0.0654
      6 H           1.3008   13.1450    3.6157 H       1  UNL1        0.0615
      7 C          -0.0796   11.8050    4.7441 C.2     1  UNL1       -0.0763
      8 H          -1.0589   12.1316    4.4124 H       1  UNL1        0.0578
      9 C           0.1687   10.9222    5.8151 C.3     1  UNL1        0.0054
     10 H          -0.5879   10.4632    6.4397 H       1  UNL1        0.0394
@<TRIPOS>BOND
     1     6     5    1
     2     5     7    2
     3     5     3    1
     4     8     7    1
     5     7     9    1
     6     3     4    1
     7     3     1    2
     8     9     1    1
     9     9    10    1
    10     1     2    1
