@<TRIPOS>MOLECULE
1,2,3,4,5
 10 10 0 0 0
SMALL
GASTEIGER

@<TRIPOS>ATOM
      1 C           3.0911    5.3813    3.5165 C.3     1  UNL1        0.0054
      2 C           3.9020    5.2356    2.3589 C.2     1  UNL1       -0.0763
      3 C           4.9395    4.3430    2.6597 C.2     1  UNL1       -0.0654
      4 C           4.8022    3.9545    4.0170 C.2     1  UNL1       -0.0654
      5 C           3.6694    4.5946    4.5511 C.2     1  UNL1       -0.0763
      6 H           2.3234    6.1341    3.6578 H       1  UNL1        0.0394
      7 H           3.7947    5.8038    1.4411 H       1  UNL1        0.0578
      8 H           5.7843    4.1146    2.0236 H       1  UNL1        0.0615
      9 H           5.5302    3.3864    4.5812 H       1  UNL1        0.0615
     10 H           3.3970    4.6414    5.5993 H       1  UNL1        0.0578
@<TRIPOS>BOND
     1     7     2    1
     2     8     3    1
     3     2     3    2
     4     2     1    1
     5     3     4    1
     6     1     6    1
     7     1     5    1
     8     4     5    2
     9     4     9    1
    10     5    10    1
