@<TRIPOS>MOLECULE
1,2,3,5,6
 10 10 0 0 0
SMALL
GASTEIGER

@<TRIPOS>ATOM
      1 C          -0.2177    8.7014    5.8642 C.3     1  UNL1        0.0054
      2 C           0.2778    8.2783    4.6106 C.2     1  UNL1       -0.0763
      3 C           1.1083    9.2972    4.1020 C.2     1  UNL1       -0.0654
      4 H           0.1573    7.2895    4.1819 H       1  UNL1        0.0578
      5 C           1.1435   10.3469    5.0460 C.2     1  UNL1       -0.0654
      6 C           0.3290    9.9790    6.1368 C.2     1  UNL1       -0.0763
      7 H          -0.7700    8.0843    6.5662 H       1  UNL1        0.0394
      8 H           1.7647   11.2320    4.9883 H       1  UNL1        0.0615
      9 H           0.2585   10.5165    7.0746 H       1  UNL1        0.0578
     10 H           1.7413    9.2215    3.2260 H       1  UNL1        0.0615
@<TRIPOS>BOND
     1    10     3    1
     2     3     2    2
     3     3     5    1
     4     4     2    1
     5     2     1    1
     6     8     5    1
     7     5     6    2
     8     1     6    1
     9     1     7    1
    10     6     9    1
