@<TRIPOS>MOLECULE
1,2,3,4,5
 10 10 0 0 0
SMALL
GASTEIGER

@<TRIPOS>ATOM
      1 C          -2.2741    8.7013    2.5591 C.3     1  UNL1        0.0054
      2 C          -2.7697    8.2782    3.8126 C.2     1  UNL1       -0.0763
      3 C          -3.6001    9.2972    4.3211 C.2     1  UNL1       -0.0654
      4 C          -3.6353   10.3469    3.3771 C.2     1  UNL1       -0.0654
      5 C          -2.8208    9.9789    2.2864 C.2     1  UNL1       -0.0763
      6 H          -2.6492    7.2895    4.2413 H       1  UNL1        0.0578
      7 H          -4.2331    9.2215    5.1971 H       1  UNL1        0.0615
      8 H          -4.2564   11.2320    3.4348 H       1  UNL1        0.0615
      9 H          -2.7502   10.5163    1.3485 H       1  UNL1        0.0578
     10 H          -1.7218    8.0842    1.8570 H       1  UNL1        0.0394
@<TRIPOS>BOND
     1     9     5    1
     2    10     1    1
     3     5     1    1
     4     5     4    2
     5     1     2    1
     6     4     8    1
     7     4     3    1
     8     2     6    1
     9     2     3    2
    10     3     7    1
