@<TRIPOS>MOLECULE
1,3,5,7,9
 10 10 0 0 0
SMALL
GASTEIGER

@<TRIPOS>ATOM
      1 C           5.4488    8.3590   14.8382 C.3     1  UNL1       -0.0127
      2 H           4.6486    8.7116   15.4669 H       1  UNL1        0.0352
      3 C           5.4634    8.4017   13.4238 C.3     1  UNL1       -0.0235
      4 H           4.6826    8.7914   12.7921 H       1  UNL1        0.0315
      5 C           6.7447    7.9733   13.0006 C.3     1  UNL1       -0.0127
      6 H           7.1138    8.0052   11.9899 H       1  UNL1        0.0352
      7 C           7.5340    7.7328   14.1544 C.2     1  UNL1       -0.0837
      8 H           8.5815    7.4840   14.1565 H       1  UNL1        0.0572
      9 C           6.7384    7.9712   15.2852 C.2     1  UNL1       -0.0837
     10 H           7.0663    7.9444   16.3108 H       1  UNL1        0.0572
@<TRIPOS>BOND
     1     6     5    1
     2     4     3    1
     3     5     3    1
     4     5     7    1
     5     3     1    1
     6     7     8    1
     7     7     9    2
     8     1     9    1
     9     1     2    1
    10     9    10    1
