@<TRIPOS>MOLECULE
1,3,5,7,9
 10 10 0 0 0
SMALL
GASTEIGER

@<TRIPOS>ATOM
      1 C           3.7493    6.6546    6.2846 C.3     1  UNL1       -0.0235
      2 H           2.7294    6.9927    6.3587 H       1  UNL1        0.0315
      3 C           4.2581    5.7451    5.3271 C.3     1  UNL1       -0.0127
      4 H           3.6810    5.2483    4.5671 H       1  UNL1        0.0352
      5 C           5.5875    5.4159    5.6922 C.2     1  UNL1       -0.0837
      6 H           6.2054    4.6769    5.2115 H       1  UNL1        0.0572
      7 C           5.9178    6.1503    6.8426 C.2     1  UNL1       -0.0837
      8 H           6.8295    6.0682    7.4104 H       1  UNL1        0.0572
      9 C           4.7901    6.9345    7.1988 C.3     1  UNL1       -0.0127
     10 H           4.6950    7.5186    8.0988 H       1  UNL1        0.0352
@<TRIPOS>BOND
     1     4     3    1
     2     6     5    1
     3     3     5    1
     4     3     1    1
     5     5     7    2
     6     1     2    1
     7     1     9    1
     8     7     9    1
     9     7     8    1
    10     9    10    1
