@<TRIPOS>MOLECULE
1,2,3,4,5
 25 25 0 0 0
SMALL
GASTEIGER

@<TRIPOS>ATOM
      1 C           3.0596   -0.0185    4.0361 C.2     1  UNL1       -0.0584
      2 C           2.7550   -0.3688    2.6815 C.2     1  UNL1       -0.0477
      3 C           1.4738   -0.9784    2.6593 C.2     1  UNL1       -0.0477
      4 C           0.9514   -0.9595    4.0056 C.2     1  UNL1       -0.0584
      5 C           1.9688   -0.3978    4.8528 C.3     1  UNL1        0.0231
      6 C           4.3933    0.4948    4.4897 C.3     1  UNL1       -0.0424
      7 H           5.1249   -0.3171    4.4889 H       1  UNL1        0.0275
      8 H           4.3423    0.9090    5.4947 H       1  UNL1        0.0275
      9 H           4.7595    1.2777    3.8237 H       1  UNL1        0.0275
     10 C           3.7399   -0.3196    1.5490 C.3     1  UNL1       -0.0395
     11 H           4.3472    0.5854    1.5890 H       1  UNL1        0.0278
     12 H           3.2341   -0.3488    0.5852 H       1  UNL1        0.0278
     13 H           4.4138   -1.1785    1.6018 H       1  UNL1        0.0278
     14 C           0.8428   -1.6913    1.5001 C.3     1  UNL1       -0.0395
     15 H           1.1730   -1.2729    0.5511 H       1  UNL1        0.0278
     16 H          -0.2427   -1.6202    1.5430 H       1  UNL1        0.0278
     17 H           1.1160   -2.7491    1.5196 H       1  UNL1        0.0278
     18 C          -0.2387   -1.7433    4.4846 C.3     1  UNL1       -0.0424
     19 H          -1.0311   -1.7444    3.7377 H       1  UNL1        0.0275
     20 H          -0.6396   -1.3194    5.4037 H       1  UNL1        0.0275
     21 H           0.0470   -2.7796    4.6820 H       1  UNL1        0.0275
     22 C           1.9257   -0.3886    6.3522 C.3     1  UNL1       -0.0510
     23 H           2.1740   -1.3809    6.7366 H       1  UNL1        0.0242
     24 H           0.9332   -0.1251    6.7155 H       1  UNL1        0.0242
     25 H           2.6398    0.3230    6.7613 H       1  UNL1        0.0242
@<TRIPOS>BOND
     1    15    14    1
     2    12    10    1
     3    14    17    1
     4    14    16    1
     5    14     3    1
     6    10    11    1
     7    10    13    1
     8    10     2    1
     9     3     2    1
    10     3     4    2
    11     2     1    2
    12    19    18    1
    13     9     6    1
    14     4    18    1
    15     4     5    1
    16     1     6    1
    17     1     5    1
    18    18    21    1
    19    18    20    1
    20     7     6    1
    21     6     8    1
    22     5    22    1
    23    22    24    1
    24    22    23    1
    25    22    25    1
