@<TRIPOS>MOLECULE
1,2,4,6,7
 10 10 0 0 0
SMALL
GASTEIGER

@<TRIPOS>ATOM
      1 C           5.2117   -0.8351    1.4321 C.2     1  UNL1       -0.0763
      2 C           5.9765   -2.0026    1.6502 C.2     1  UNL1       -0.0654
      3 H           5.7803   -2.9751    1.2184 H       1  UNL1        0.0615
      4 C           7.1388   -1.6347    2.3476 C.2     1  UNL1       -0.0654
      5 H           7.9882   -2.2761    2.5450 H       1  UNL1        0.0615
      6 C           7.0880   -0.2494    2.5952 C.2     1  UNL1       -0.0763
      7 C           5.9047    0.2513    2.0082 C.3     1  UNL1        0.0054
      8 H           5.6333    1.2898    1.8936 H       1  UNL1        0.0394
      9 H           4.3428   -0.7591    0.7962 H       1  UNL1        0.0578
     10 H           7.8948    0.3383    3.0157 H       1  UNL1        0.0578
@<TRIPOS>BOND
     1     9     1    1
     2     3     2    1
     3     1     2    2
     4     1     7    1
     5     2     4    1
     6     8     7    1
     7     7     6    1
     8     4     5    1
     9     4     6    2
    10     6    10    1
