@<TRIPOS>MOLECULE
1,3,5,7,9
 10 10 0 0 0
SMALL
GASTEIGER

@<TRIPOS>ATOM
      1 C          10.2782    3.9668    4.9579 C.2     1  UNL1       -0.0763
      2 H          10.5363    2.9206    4.8583 H       1  UNL1        0.0578
      3 C           9.7297    4.7722    3.9401 C.2     1  UNL1       -0.0654
      4 H           9.4866    4.4395    2.9387 H       1  UNL1        0.0615
      5 C           9.7305    6.1056    4.3867 C.2     1  UNL1       -0.0654
      6 H           9.4881    6.9746    3.7877 H       1  UNL1        0.0615
      7 C          10.6290    4.8104    6.0383 C.3     1  UNL1        0.0054
      8 H          11.1696    4.5130    6.9255 H       1  UNL1        0.0394
      9 C          10.2797    6.1351    5.6840 C.2     1  UNL1       -0.0763
     10 H          10.5396    7.0298    6.2343 H       1  UNL1        0.0578
@<TRIPOS>BOND
     1     4     3    1
     2     6     5    1
     3     3     5    1
     4     3     1    2
     5     5     9    2
     6     2     1    1
     7     1     7    1
     8     9     7    1
     9     9    10    1
    10     7     8    1
