@<TRIPOS>MOLECULE
1,3,4,6,7
 10 10 0 0 0
SMALL
GASTEIGER

@<TRIPOS>ATOM
      1 C           4.8909   -3.3641    5.0882 C.2     1  UNL1       -0.0763
      2 H           4.1407   -4.1075    4.8568 H       1  UNL1        0.0578
      3 C           4.7813   -2.3550    6.0792 C.3     1  UNL1        0.0054
      4 C           6.0442   -1.7458    6.2142 C.2     1  UNL1       -0.0763
      5 H           6.3324   -1.0226    6.9660 H       1  UNL1        0.0578
      6 C           6.9243   -2.3546    5.2984 C.2     1  UNL1       -0.0654
      7 C           6.2165   -3.3682    4.6205 C.2     1  UNL1       -0.0654
      8 H           6.6444   -4.1049    3.9515 H       1  UNL1        0.0615
      9 H           3.9268   -2.2015    6.7238 H       1  UNL1        0.0394
     10 H           7.9920   -2.1740    5.2444 H       1  UNL1        0.0615
@<TRIPOS>BOND
     1     8     7    1
     2     7     1    2
     3     7     6    1
     4     2     1    1
     5     1     3    1
     6    10     6    1
     7     6     4    2
     8     3     4    1
     9     3     9    1
    10     4     5    1
