@<TRIPOS>MOLECULE
1,2,3,4,5
 10 10 0 0 0
SMALL
GASTEIGER

@<TRIPOS>ATOM
      1 C           6.8123    1.0312    6.7541 C.2     1  UNL1       -0.0763
      2 C           5.4695    1.0788    6.3338 C.2     1  UNL1       -0.0654
      3 C           7.1604   -0.3221    6.9556 C.3     1  UNL1        0.0054
      4 C           6.0153   -1.1060    6.6845 C.2     1  UNL1       -0.0763
      5 C           4.9745   -0.2394    6.3132 C.2     1  UNL1       -0.0654
      6 H           4.8659    1.9718    6.2409 H       1  UNL1        0.0615
      7 H           7.4293    1.8830    6.9916 H       1  UNL1        0.0578
      8 H           3.9379   -0.5159    6.1687 H       1  UNL1        0.0615
      9 H           8.0671   -0.6737    7.4216 H       1  UNL1        0.0394
     10 H           5.9188   -2.1655    6.8827 H       1  UNL1        0.0578
@<TRIPOS>BOND
     1     8     5    1
     2     6     2    1
     3     5     2    1
     4     5     4    2
     5     2     1    2
     6     4    10    1
     7     4     3    1
     8     1     3    1
     9     1     7    1
    10     3     9    1
