@<TRIPOS>MOLECULE
2,3,8,23,24
 40 41 0 0 0
SMALL
GASTEIGER

@<TRIPOS>ATOM
      1 SI          3.1753    4.7118    4.9638 Si      1  UNL1        0.0000
      2 C           4.0562    7.4656    4.7289 C.2     1  UNL1        0.0000
      3 C           1.8675    7.3266    5.4676 C.2     1  UNL1        0.0000
      4 C           0.5829    6.7960    6.0352 C.3     1  UNL1        0.0000
      5 H          -0.0289    7.6033    6.4361 H       1  UNL1        0.0000
      6 H           0.7769    6.0843    6.8411 H       1  UNL1        0.0000
      7 H          -0.0037    6.2896    5.2653 H       1  UNL1        0.0000
      8 C           4.7639    4.0387    5.7975 C.ar    1  UNL1        0.0000
      9 C           2.0723    8.5750    4.9256 C.2     1  UNL1        0.0000
     10 C           5.4382    7.0814    4.2808 C.3     1  UNL1        0.0000
     11 H           5.4279    6.7977    3.2261 H       1  UNL1        0.0000
     12 H           5.8244    6.2368    4.8514 H       1  UNL1        0.0000
     13 H           6.1321    7.9164    4.3844 H       1  UNL1        0.0000
     14 C           3.4252    8.6603    4.4699 C.2     1  UNL1        0.0000
     15 C           1.7667    3.6765    5.7600 C.3     1  UNL1        0.0000
     16 H           1.7277    3.8271    6.8377 H       1  UNL1        0.0000
     17 H           1.9455    2.6202    5.5847 H       1  UNL1        0.0000
     18 H           0.7947    3.9159    5.3449 H       1  UNL1        0.0000
     19 C           3.9991    9.8734    3.8084 C.3     1  UNL1        0.0000
     20 H           5.0712    9.7685    3.6578 H       1  UNL1        0.0000
     21 H           3.8194   10.7679    4.4071 H       1  UNL1        0.0000
     22 H           3.5347   10.0322    2.8337 H       1  UNL1        0.0000
     23 C           3.1056    6.5633    5.3830 C.3     1  UNL1        0.0000
     24 C           5.1665    4.6417    7.0149 C.ar    1  UNL1        0.0000
     25 C           1.0862    9.6890    4.7669 C.3     1  UNL1        0.0000
     26 H           0.9005    9.8784    3.7082 H       1  UNL1        0.0000
     27 H           1.4659   10.6146    5.2027 H       1  UNL1        0.0000
     28 H           0.1350    9.4492    5.2366 H       1  UNL1        0.0000
     29 C           7.0118    3.0349    7.0821 C.ar    1  UNL1        0.0000
     30 H           7.8884    2.6512    7.5889 H       1  UNL1        0.0000
     31 C           6.3036    4.0982    7.6265 C.ar    1  UNL1        0.0000
     32 H           6.6648    4.5139    8.5674 H       1  UNL1        0.0000
     33 C           6.5969    2.4676    5.8918 C.ar    1  UNL1        0.0000
     34 H           7.1440    1.6394    5.4614 H       1  UNL1        0.0000
     35 C           5.4728    2.9709    5.2614 C.ar    1  UNL1        0.0000
     36 H           5.1416    2.5284    4.3313 H       1  UNL1        0.0000
     37 C           3.1424    4.3742    3.0798 C.3     1  UNL1        0.0000
     38 H           2.3250    4.9132    2.6120 H       1  UNL1        0.0000
     39 H           3.0080    3.3186    2.8667 H       1  UNL1        0.0000
     40 H           4.0619    4.6961    2.6031 H       1  UNL1        0.0000
@<TRIPOS>BOND
     1    40    37    1
     2    38    37    1
     3    22    19    1
     4    39    37    1
     5    37     1    1
     6    11    10    1
     7    20    19    1
     8    26    25    1
     9    19    21    1
    10    19    14    1
    11    10    13    1
    12    10     2    1
    13    10    12    1
    14    36    35    1
    15    14     2    2
    16    14     9    1
    17     2    23    1
    18    25     9    1
    19    25    27    1
    20    25    28    1
    21     9     3    2
    22     1    23    1
    23     1    15    1
    24     1     8    1
    25    35     8   ar
    26    35    33   ar
    27     7     4    1
    28    18    15    1
    29    23     3    1
    30    34    33    1
    31     3     4    1
    32    17    15    1
    33    15    16    1
    34     8    24   ar
    35    33    29   ar
    36     4     5    1
    37     4     6    1
    38    24    31   ar
    39    29    30    1
    40    29    31   ar
    41    31    32    1
