@<TRIPOS>MOLECULE
1,2,3,4,5
 25 25 0 0 0
SMALL
GASTEIGER

@<TRIPOS>ATOM
      1 C           4.9040    3.8349    1.9837 C.3     1  UNL1       -0.0053
      2 C           5.3158    2.6590    1.3002 C.3     1  UNL1        0.0052
      3 C           5.5651    1.6520    2.2658 C.2     1  UNL1       -0.0658
      4 C           5.3286    2.2017    3.5533 C.2     1  UNL1       -0.0658
      5 C           4.9283    3.5564    3.3817 C.3     1  UNL1        0.0052
      6 C           4.8029    5.2141    1.3854 C.3     1  UNL1       -0.0574
      7 C           5.5123    2.4927   -0.1814 C.3     1  UNL1       -0.0545
      8 C           6.1321    0.2936    1.9561 C.3     1  UNL1       -0.0430
      9 C           5.7225    1.5487    4.8532 C.3     1  UNL1       -0.0430
     10 C           4.8837    4.6179    4.4506 C.3     1  UNL1       -0.0545
     11 H           4.3270    5.1989    0.4061 H       1  UNL1        0.0236
     12 H           4.2394    5.8823    2.0342 H       1  UNL1        0.0236
     13 H           5.8033    5.6386    1.2640 H       1  UNL1        0.0236
     14 H           6.5226    2.1376   -0.3910 H       1  UNL1        0.0239
     15 H           4.8074    1.7612   -0.5897 H       1  UNL1        0.0239
     16 H           5.3726    3.4387   -0.7005 H       1  UNL1        0.0239
     17 H           5.6339   -0.1473    1.0905 H       1  UNL1        0.0275
     18 H           7.1978    0.3735    1.7237 H       1  UNL1        0.0275
     19 H           6.0264   -0.3840    2.8030 H       1  UNL1        0.0275
     20 H           5.5527    0.4716    4.8257 H       1  UNL1        0.0275
     21 H           5.1732    1.9630    5.6978 H       1  UNL1        0.0275
     22 H           6.7879    1.7085    5.0417 H       1  UNL1        0.0275
     23 H           3.9710    5.2126    4.4043 H       1  UNL1        0.0239
     24 H           4.9635    4.1813    5.4440 H       1  UNL1        0.0239
     25 H           5.7291    5.2989    4.3252 H       1  UNL1        0.0239
@<TRIPOS>BOND
     1    16     7    1
     2    15     7    1
     3    14     7    1
     4     7     2    1
     5    11     6    1
     6    17     8    1
     7    13     6    1
     8     2     1    1
     9     2     3    1
    10     6     1    1
    11     6    12    1
    12    18     8    1
    13     8     3    1
    14     8    19    1
    15     1     5    1
    16     3     4    2
    17     5     4    1
    18     5    10    1
    19     4     9    1
    20    25    10    1
    21    23    10    1
    22    10    24    1
    23    20     9    1
    24     9    22    1
    25     9    21    1
