@<TRIPOS>MOLECULE
3,4,5,6,7
 34 34 0 0 0
SMALL
GASTEIGER

@<TRIPOS>ATOM
      1 SI          0.2326    4.5487    3.8737 Si      1  UNL1        0.0000
      2 SI          1.2823   -1.1717    3.3036 Si      1  UNL1        0.0000
      3 C           1.4894    0.6477    3.7125 C.2     1  UNL1        0.0000
      4 C           0.7282    1.7300    3.2302 C.2     1  UNL1        0.0000
      5 C           1.1924    2.9391    3.8147 C.3     1  UNL1        0.0000
      6 C           2.2598    2.5750    4.6871 C.2     1  UNL1        0.0000
      7 C           2.4500    1.1873    4.6092 C.2     1  UNL1        0.0000
      8 C          -0.6026    4.7085    5.5907 C.3     1  UNL1        0.0000
      9 C          -1.1402    4.5682    2.5446 C.3     1  UNL1        0.0000
     10 C           1.3575    6.0883    3.6577 C.3     1  UNL1        0.0000
     11 C           3.0307   -1.9544    3.2574 C.3     1  UNL1        0.0000
     12 C           0.2475   -2.0556    4.6488 C.3     1  UNL1        0.0000
     13 C           0.4068   -1.3545    1.6161 C.3     1  UNL1        0.0000
     14 H          -0.1335    1.6431    2.5796 H       1  UNL1        0.0000
     15 H           2.7140    3.2381    5.4123 H       1  UNL1        0.0000
     16 H           3.0968    0.5924    5.2434 H       1  UNL1        0.0000
     17 H           0.1307    4.7007    6.3911 H       1  UNL1        0.0000
     18 H          -1.2896    3.8882    5.7727 H       1  UNL1        0.0000
     19 H          -1.1647    5.6337    5.6697 H       1  UNL1        0.0000
     20 H          -1.8579    3.7721    2.7142 H       1  UNL1        0.0000
     21 H          -0.7388    4.4435    1.5445 H       1  UNL1        0.0000
     22 H          -1.6852    5.5067    2.5664 H       1  UNL1        0.0000
     23 H           1.8702    6.3336    4.5833 H       1  UNL1        0.0000
     24 H           2.1083    5.9386    2.8859 H       1  UNL1        0.0000
     25 H           0.7696    6.9577    3.3800 H       1  UNL1        0.0000
     26 H           3.0096   -2.9660    2.8639 H       1  UNL1        0.0000
     27 H           3.6838   -1.3611    2.6197 H       1  UNL1        0.0000
     28 H           3.4753   -2.0023    4.2481 H       1  UNL1        0.0000
     29 H          -0.7475   -1.6298    4.7241 H       1  UNL1        0.0000
     30 H           0.7114   -1.9766    5.6265 H       1  UNL1        0.0000
     31 H           0.1383   -3.1105    4.4200 H       1  UNL1        0.0000
     32 H          -0.6352   -1.0542    1.6745 H       1  UNL1        0.0000
     33 H           0.4313   -2.3805    1.2624 H       1  UNL1        0.0000
     34 H           0.8943   -0.7304    0.8711 H       1  UNL1        0.0000
@<TRIPOS>BOND
     1    34    13    1
     2    33    13    1
     3    21     9    1
     4    13    32    1
     5    13     2    1
     6     9    22    1
     7     9    20    1
     8     9     1    1
     9    14     4    1
    10    27    11    1
    11    26    11    1
    12    24    10    1
    13     4     3    2
    14     4     5    1
    15    11     2    1
    16    11    28    1
    17     2     3    1
    18     2    12    1
    19    25    10    1
    20    10     1    1
    21    10    23    1
    22     3     7    1
    23     5     1    1
    24     5     6    1
    25     1     8    1
    26    31    12    1
    27     7     6    2
    28     7    16    1
    29    12    29    1
    30    12    30    1
    31     6    15    1
    32     8    19    1
    33     8    18    1
    34     8    17    1
