@<TRIPOS>MOLECULE
1,2,3,4,5
 25 25 0 0 0
SMALL
GASTEIGER

@<TRIPOS>ATOM
      1 C           3.2280   16.6589   15.0153 C.2     1  UNL1       -0.0584
      2 C           3.4178   18.0255   15.3588 C.3     1  UNL1        0.0231
      3 C           4.0101   18.0898   16.6559 C.2     1  UNL1       -0.0584
      4 C           4.2589   16.7707   17.0827 C.2     1  UNL1       -0.0477
      5 C           3.7704   15.8792   16.0725 C.2     1  UNL1       -0.0477
      6 C           2.4883   16.1613   13.8170 C.3     1  UNL1       -0.0424
      7 H           2.7892   15.1489   13.5669 H       1  UNL1        0.0275
      8 H           2.6939   16.7939   12.9574 H       1  UNL1        0.0275
      9 H           1.4119   16.1684   14.0014 H       1  UNL1        0.0275
     10 C           2.9099   19.2079   14.6002 C.3     1  UNL1       -0.0510
     11 H           3.6440   20.0121   14.6109 H       1  UNL1        0.0242
     12 H           1.9872   19.5879   15.0428 H       1  UNL1        0.0242
     13 H           2.7109   18.9434   13.5658 H       1  UNL1        0.0242
     14 C           4.1935   19.3398   17.4520 C.3     1  UNL1       -0.0424
     15 H           3.2756   19.5724   17.9961 H       1  UNL1        0.0275
     16 H           4.4240   20.1840   16.8064 H       1  UNL1        0.0275
     17 H           4.9992   19.2348   18.1742 H       1  UNL1        0.0275
     18 C           4.8116   16.3345   18.4016 C.3     1  UNL1       -0.0395
     19 H           5.3688   17.1397   18.8724 H       1  UNL1        0.0278
     20 H           5.4775   15.4852   18.2690 H       1  UNL1        0.0278
     21 H           4.0081   16.0350   19.0775 H       1  UNL1        0.0278
     22 C           3.6591   14.3991   16.2694 C.3     1  UNL1       -0.0395
     23 H           3.0167   14.1906   17.1266 H       1  UNL1        0.0278
     24 H           4.6335   13.9574   16.4681 H       1  UNL1        0.0278
     25 H           3.2297   13.9146   15.3980 H       1  UNL1        0.0278
@<TRIPOS>BOND
     1     8     6    1
     2    13    10    1
     3     7     6    1
     4     6     9    1
     5     6     1    1
     6    10    11    1
     7    10    12    1
     8    10     2    1
     9     1     2    1
    10     1     5    2
    11     2     3    1
    12    25    22    1
    13     5    22    1
    14     5     4    1
    15    22    24    1
    16    22    23    1
    17     3     4    2
    18     3    14    1
    19    16    14    1
    20     4    18    1
    21    14    15    1
    22    14    17    1
    23    20    18    1
    24    18    19    1
    25    18    21    1
