@<TRIPOS>MOLECULE
1,2,3,4,5
 25 25 0 0 0
SMALL
GASTEIGER

@<TRIPOS>ATOM
      1 C          -2.6163    4.0244   13.5026 C.3     1  UNL1        0.0052
      2 C          -3.6033    3.5196   12.6130 C.3     1  UNL1       -0.0053
      3 C          -3.5736    4.3098   11.4310 C.3     1  UNL1        0.0052
      4 C          -2.6229    5.3643   11.6305 C.2     1  UNL1       -0.0658
      5 C          -2.0133    5.1709   12.8930 C.2     1  UNL1       -0.0658
      6 C          -2.4352    3.6361   14.9366 C.3     1  UNL1       -0.0545
      7 H          -2.8853    4.3942   15.5812 H       1  UNL1        0.0239
      8 H          -1.3813    3.5592   15.1934 H       1  UNL1        0.0239
      9 H          -2.9101    2.6822   15.1419 H       1  UNL1        0.0239
     10 C          -4.5805    2.4344   12.9383 C.3     1  UNL1       -0.0574
     11 H          -4.0677    1.5075   13.1913 H       1  UNL1        0.0236
     12 H          -5.2309    2.2459   12.0899 H       1  UNL1        0.0236
     13 H          -5.1983    2.7334   13.7868 H       1  UNL1        0.0236
     14 C          -4.5717    4.2438   10.3164 C.3     1  UNL1       -0.0545
     15 H          -4.7151    3.2201    9.9801 H       1  UNL1        0.0239
     16 H          -4.2441    4.8351    9.4657 H       1  UNL1        0.0239
     17 H          -5.5364    4.6337   10.6479 H       1  UNL1        0.0239
     18 C          -2.4873    6.5898   10.7834 C.3     1  UNL1       -0.0430
     19 H          -3.2760    7.2986   11.0451 H       1  UNL1        0.0275
     20 H          -2.5833    6.3652    9.7238 H       1  UNL1        0.0275
     21 H          -1.5309    7.0798   10.9508 H       1  UNL1        0.0275
     22 C          -1.0492    6.0922   13.5722 C.3     1  UNL1       -0.0430
     23 H          -0.4228    6.6083   12.8486 H       1  UNL1        0.0275
     24 H          -0.4022    5.5360   14.2456 H       1  UNL1        0.0275
     25 H          -1.5865    6.8420   14.1564 H       1  UNL1        0.0275
@<TRIPOS>BOND
     1    16    14    1
     2    20    18    1
     3    15    14    1
     4    14    17    1
     5    14     3    1
     6    18    21    1
     7    18    19    1
     8    18     4    1
     9     3     4    1
    10     3     2    1
    11     4     5    2
    12    12    10    1
    13     2    10    1
    14     2     1    1
    15    23    22    1
    16     5     1    1
    17     5    22    1
    18    10    11    1
    19    10    13    1
    20     1     6    1
    21    22    25    1
    22    22    24    1
    23     6     9    1
    24     6     8    1
    25     6     7    1
