@<TRIPOS>MOLECULE
1,2,3,4,5
 25 25 0 0 0
SMALL
GASTEIGER

@<TRIPOS>ATOM
      1 C           2.6966    4.6065    2.7384 C.2     1  UNL1       -0.0477
      2 C           3.4130    4.6357    1.5177 C.2     1  UNL1       -0.0584
      3 C           3.2513    5.9338    0.9571 C.3     1  UNL1        0.0231
      4 C           2.3475    6.6758    1.7955 C.2     1  UNL1       -0.0584
      5 C           2.0165    5.8642    2.8924 C.2     1  UNL1       -0.0477
      6 C           2.4348    3.3630    3.5326 C.3     1  UNL1       -0.0395
      7 H           1.8202    3.5750    4.4015 H       1  UNL1        0.0278
      8 H           3.3632    2.9077    3.8713 H       1  UNL1        0.0278
      9 H           1.9092    2.6356    2.9116 H       1  UNL1        0.0278
     10 C           4.1388    3.4838    0.8966 C.3     1  UNL1       -0.0424
     11 H           4.4884    2.7968    1.6621 H       1  UNL1        0.0275
     12 H           4.9986    3.8310    0.3299 H       1  UNL1        0.0275
     13 H           3.4810    2.9368    0.2186 H       1  UNL1        0.0275
     14 C           3.6901    6.3517   -0.4126 C.3     1  UNL1       -0.0510
     15 H           4.6180    5.8573   -0.6875 H       1  UNL1        0.0242
     16 H           3.8474    7.4262   -0.4633 H       1  UNL1        0.0242
     17 H           2.9294    6.0842   -1.1483 H       1  UNL1        0.0242
     18 C           1.7428    7.9953    1.4305 C.3     1  UNL1       -0.0424
     19 H           2.4750    8.6427    0.9543 H       1  UNL1        0.0275
     20 H           1.3517    8.5087    2.3047 H       1  UNL1        0.0275
     21 H           0.9195    7.8459    0.7289 H       1  UNL1        0.0275
     22 C           1.0427    6.1850    3.9801 C.3     1  UNL1       -0.0395
     23 H           0.0820    5.7068    3.7807 H       1  UNL1        0.0278
     24 H           0.8778    7.2574    4.0524 H       1  UNL1        0.0278
     25 H           1.4080    5.8280    4.9405 H       1  UNL1        0.0278
@<TRIPOS>BOND
     1    17    14    1
     2    15    14    1
     3    16    14    1
     4    14     3    1
     5    13    10    1
     6    12    10    1
     7    21    18    1
     8    10     2    1
     9    10    11    1
    10    19    18    1
    11     3     2    1
    12     3     4    1
    13    18     4    1
    14    18    20    1
    15     2     1    2
    16     4     5    2
    17     1     5    1
    18     1     6    1
    19     5    22    1
    20     9     6    1
    21     6     8    1
    22     6     7    1
    23    23    22    1
    24    22    24    1
    25    22    25    1
