@<TRIPOS>MOLECULE
1,2,3,4,5
 25 25 0 0 0
SMALL
GASTEIGER

@<TRIPOS>ATOM
      1 C          -4.1215    1.9299   18.8244 C.2     1  UNL1       -0.0477
      2 C          -2.8038    2.3374   18.4353 C.2     1  UNL1       -0.0584
      3 C          -2.2518    3.1049   19.4929 C.3     1  UNL1        0.0231
      4 C          -3.2368    3.1914   20.5349 C.2     1  UNL1       -0.0584
      5 C          -4.4007    2.5026   20.1006 C.2     1  UNL1       -0.0477
      6 C          -5.1178    1.2990   17.9011 C.3     1  UNL1       -0.0395
      7 H          -5.9357    0.8432   18.4514 H       1  UNL1        0.0278
      8 H          -4.6535    0.5275   17.2916 H       1  UNL1        0.0278
      9 H          -5.5331    2.0562   17.2327 H       1  UNL1        0.0278
     10 C          -2.2043    2.1432   17.0773 C.3     1  UNL1       -0.0424
     11 H          -2.5162    2.9538   16.4156 H       1  UNL1        0.0275
     12 H          -2.5302    1.2039   16.6379 H       1  UNL1        0.0275
     13 H          -1.1182    2.1420   17.1246 H       1  UNL1        0.0275
     14 C          -0.9749    3.8861   19.4479 C.3     1  UNL1       -0.0510
     15 H          -0.2364    3.3941   18.8198 H       1  UNL1        0.0242
     16 H          -0.5543    4.0036   20.4435 H       1  UNL1        0.0242
     17 H          -1.1627    4.8806   19.0383 H       1  UNL1        0.0242
     18 C          -3.1551    4.1096   21.7153 C.3     1  UNL1       -0.0424
     19 H          -3.3810    5.1314   21.4029 H       1  UNL1        0.0275
     20 H          -2.1599    4.1027   22.1532 H       1  UNL1        0.0275
     21 H          -3.8691    3.8215   22.4812 H       1  UNL1        0.0275
     22 C          -5.7155    2.4935   20.8131 C.3     1  UNL1       -0.0395
     23 H          -6.2148    3.4552   20.6789 H       1  UNL1        0.0278
     24 H          -5.5804    2.3210   21.8791 H       1  UNL1        0.0278
     25 H          -6.3621    1.7131   20.4227 H       1  UNL1        0.0278
@<TRIPOS>BOND
     1    11    10    1
     2    12    10    1
     3    10    13    1
     4    10     2    1
     5     9     6    1
     6     8     6    1
     7     6     7    1
     8     6     1    1
     9     2     1    2
    10     2     3    1
    11    15    14    1
    12     1     5    1
    13    17    14    1
    14    14     3    1
    15    14    16    1
    16     3     4    1
    17     5     4    2
    18     5    22    1
    19    25    22    1
    20     4    18    1
    21    23    22    1
    22    22    24    1
    23    19    18    1
    24    18    20    1
    25    18    21    1
