@<TRIPOS>MOLECULE
1,2,4,5,7
 34 34 0 0 0
SMALL
GASTEIGER

@<TRIPOS>ATOM
      1 C          23.2826    8.6089   12.9932 C.2     1  UNL1        0.0000
      2 C          21.9752    8.0579   12.9184 C.3     1  UNL1        0.0000
      3 H          21.7553    7.0080   13.0186 H       1  UNL1        0.0000
      4 C          20.9992    9.0708   12.7766 C.3     1  UNL1        0.0000
      5 C          21.7331   10.2992   12.7419 C.3     1  UNL1        0.0000
      6 H          21.2844   11.2802   12.7474 H       1  UNL1        0.0000
      7 C          23.1084   10.0154   12.8908 C.2     1  UNL1        0.0000
      8 H          23.9009   10.7387   12.9965 H       1  UNL1        0.0000
      9 SI         24.7676    7.6550   13.6419 Si      1  UNL1        0.0000
     10 C          26.0534    8.9036   14.2908 C.3     1  UNL1        0.0000
     11 H          26.4798    9.4967   13.4901 H       1  UNL1        0.0000
     12 H          26.8698    8.3806   14.7783 H       1  UNL1        0.0000
     13 H          25.6196    9.5837   15.0178 H       1  UNL1        0.0000
     14 C          25.5456    6.4542   12.3930 C.3     1  UNL1        0.0000
     15 H          24.8138    5.7491   12.0121 H       1  UNL1        0.0000
     16 H          26.3441    5.8837   12.8581 H       1  UNL1        0.0000
     17 H          25.9666    6.9740   11.5400 H       1  UNL1        0.0000
     18 C          24.0963    6.6547   15.1265 C.3     1  UNL1        0.0000
     19 H          23.5533    7.2839   15.8261 H       1  UNL1        0.0000
     20 H          24.9085    6.1832   15.6707 H       1  UNL1        0.0000
     21 H          23.4234    5.8679   14.8005 H       1  UNL1        0.0000
     22 SI         19.2147    8.7611   13.2825 Si      1  UNL1        0.0000
     23 C          19.2133    9.1317   15.1604 C.3     1  UNL1        0.0000
     24 H          19.9441    8.5222   15.6839 H       1  UNL1        0.0000
     25 H          18.2400    8.9254   15.5951 H       1  UNL1        0.0000
     26 H          19.4500   10.1720   15.3650 H       1  UNL1        0.0000
     27 C          18.7998    6.9183   13.0136 C.3     1  UNL1        0.0000
     28 H          19.3309    6.4835   12.1734 H       1  UNL1        0.0000
     29 H          17.7383    6.7805   12.8336 H       1  UNL1        0.0000
     30 H          19.0588    6.3362   13.8930 H       1  UNL1        0.0000
     31 C          17.8663    9.8613   12.5040 C.3     1  UNL1        0.0000
     32 H          17.9735   10.8989   12.8063 H       1  UNL1        0.0000
     33 H          16.8918    9.5298   12.8500 H       1  UNL1        0.0000
     34 H          17.8543    9.8180   11.4201 H       1  UNL1        0.0000
@<TRIPOS>BOND
     1    34    31    1
     2    17    14    1
     3    15    14    1
     4    28    27    1
     5    14    16    1
     6    14     9    1
     7    31    32    1
     8    31    33    1
     9    31    22    1
    10     5     6    1
    11     5     4    1
    12     5     7    1
    13     4     2    1
    14     4    22    1
    15    29    27    1
    16     7     1    2
    17     7     8    1
    18     2     1    1
    19     2     3    1
    20     1     9    1
    21    27    22    1
    22    27    30    1
    23    22    23    1
    24    11    10    1
    25     9    10    1
    26     9    18    1
    27    10    12    1
    28    10    13    1
    29    21    18    1
    30    18    20    1
    31    18    19    1
    32    23    26    1
    33    23    25    1
    34    23    24    1
