@<TRIPOS>MOLECULE
1,2,4,5,7
 34 34 0 0 0
SMALL
GASTEIGER

@<TRIPOS>ATOM
      1 C           4.5668   13.9781    0.8772 C.2     1  UNL1        0.0000
      2 C           4.0472   12.8103    0.2636 C.3     1  UNL1        0.0000
      3 H           3.3579   12.8170   -0.5642 H       1  UNL1        0.0000
      4 C           4.5188   11.6489    0.9146 C.3     1  UNL1        0.0000
      5 C           5.3423   12.1178    1.9914 C.3     1  UNL1        0.0000
      6 H           5.7524   11.4831    2.7578 H       1  UNL1        0.0000
      7 C           5.3547   13.5178    1.9772 C.2     1  UNL1        0.0000
      8 H           5.8052   14.1614    2.7133 H       1  UNL1        0.0000
      9 SI          3.8107   15.6926    0.6620 Si      1  UNL1        0.0000
     10 C           2.1782   15.6453    1.6445 C.3     1  UNL1        0.0000
     11 H           2.3541   15.4652    2.7010 H       1  UNL1        0.0000
     12 H           1.5172   14.8621    1.2847 H       1  UNL1        0.0000
     13 H           1.6477   16.5886    1.5578 H       1  UNL1        0.0000
     14 C           4.9600   17.0258    1.3867 C.3     1  UNL1        0.0000
     15 H           5.9237   17.0738    0.8905 H       1  UNL1        0.0000
     16 H           5.1485   16.8468    2.4409 H       1  UNL1        0.0000
     17 H           4.5001   18.0052    1.3044 H       1  UNL1        0.0000
     18 C           3.4534   15.9509   -1.1986 C.3     1  UNL1        0.0000
     19 H           2.3976   15.8100   -1.4073 H       1  UNL1        0.0000
     20 H           4.0063   15.2528   -1.8207 H       1  UNL1        0.0000
     21 H           3.7097   16.9560   -1.5174 H       1  UNL1        0.0000
     22 SI          3.6945    9.9483    0.8614 Si      1  UNL1        0.0000
     23 C           4.9757    8.5649    1.1052 C.3     1  UNL1        0.0000
     24 H           5.5474    8.7027    2.0175 H       1  UNL1        0.0000
     25 H           5.6779    8.5155    0.2786 H       1  UNL1        0.0000
     26 H           4.4827    7.6008    1.1739 H       1  UNL1        0.0000
     27 C           2.4794    9.9964    2.3307 C.3     1  UNL1        0.0000
     28 H           1.7579   10.8017    2.2264 H       1  UNL1        0.0000
     29 H           2.9972   10.1415    3.2742 H       1  UNL1        0.0000
     30 H           1.9247    9.0659    2.4020 H       1  UNL1        0.0000
     31 C           2.7465    9.7088   -0.7786 C.3     1  UNL1        0.0000
     32 H           3.1753    8.9039   -1.3665 H       1  UNL1        0.0000
     33 H           2.7393   10.6012   -1.3966 H       1  UNL1        0.0000
     34 H           1.7119    9.4470   -0.5817 H       1  UNL1        0.0000
@<TRIPOS>BOND
     1    20    18    1
     2    21    18    1
     3    19    18    1
     4    33    31    1
     5    32    31    1
     6    18     9    1
     7    31    34    1
     8    31    22    1
     9     3     2    1
    10     2     1    1
    11     2     4    1
    12    25    23    1
    13     9     1    1
    14     9    14    1
    15     9    10    1
    16    22     4    1
    17    22    23    1
    18    22    27    1
    19     1     7    2
    20    15    14    1
    21     4     5    1
    22    23    26    1
    23    23    24    1
    24    12    10    1
    25    17    14    1
    26    14    16    1
    27    13    10    1
    28    10    11    1
    29     7     5    1
    30     7     8    1
    31     5     6    1
    32    28    27    1
    33    27    30    1
    34    27    29    1
