@<TRIPOS>MOLECULE
1,2,4,6,8
 22 22 0 0 0
SMALL
GASTEIGER

@<TRIPOS>ATOM
      1 C           3.0555    2.8508    9.5008 C.2     1  UNL1        0.0000
      2 C           3.0834    4.2738    9.5981 C.3     1  UNL1        0.0000
      3 H           2.6674    4.8527   10.4055 H       1  UNL1        0.0000
      4 C           3.8580    4.7838    8.5344 C.2     1  UNL1        0.0000
      5 H           4.1208    5.8195    8.3812 H       1  UNL1        0.0000
      6 C           4.2960    3.6955    7.7488 C.2     1  UNL1        0.0000
      7 H           5.0206    3.7586    6.9532 H       1  UNL1        0.0000
      8 C           3.8019    2.5092    8.3469 C.2     1  UNL1        0.0000
      9 H           4.0226    1.5029    8.0274 H       1  UNL1        0.0000
     10 SI          2.2060    1.6903   10.7045 Si      1  UNL1        0.0000
     11 C           3.2563    1.6171   12.3018 C.3     1  UNL1        0.0000
     12 H           3.3640    2.5976   12.7552 H       1  UNL1        0.0000
     13 H           4.2533    1.2355   12.1048 H       1  UNL1        0.0000
     14 H           2.7935    0.9641   13.0347 H       1  UNL1        0.0000
     15 C           2.0992   -0.0429    9.9212 C.3     1  UNL1        0.0000
     16 H           1.5049   -0.7162   10.5305 H       1  UNL1        0.0000
     17 H           3.0817   -0.4898    9.8040 H       1  UNL1        0.0000
     18 H           1.6376    0.0102    8.9411 H       1  UNL1        0.0000
     19 C           0.4675    2.3538   11.0993 C.3     1  UNL1        0.0000
     20 H           0.5138    3.2297   11.7390 H       1  UNL1        0.0000
     21 H          -0.1592    1.6144   11.5873 H       1  UNL1        0.0000
     22 H          -0.0120    2.6501   10.1726 H       1  UNL1        0.0000
@<TRIPOS>BOND
     1     7     6    1
     2     6     8    1
     3     6     4    2
     4     9     8    1
     5     8     1    2
     6     5     4    1
     7     4     2    1
     8    18    15    1
     9     1     2    1
    10     1    10    1
    11     2     3    1
    12    17    15    1
    13    15    16    1
    14    15    10    1
    15    22    19    1
    16    10    19    1
    17    10    11    1
    18    19    21    1
    19    19    20    1
    20    13    11    1
    21    11    12    1
    22    11    14    1
