@<TRIPOS>MOLECULE
3,5,7,8,10
 34 34 0 0 0
SMALL
GASTEIGER

@<TRIPOS>ATOM
      1 SI         -6.1388    8.1461    3.6459 Si      1  UNL1        0.0000
      2 SI         -1.7034    8.3885    7.4679 Si      1  UNL1        0.0000
      3 C          -3.7878    8.5127    5.3686 C.3     1  UNL1        0.0000
      4 H          -3.8466    9.5885    5.3553 H       1  UNL1        0.0000
      5 C          -3.2924    6.3919    6.0195 C.3     1  UNL1        0.0000
      6 H          -2.9035    5.5583    6.5800 H       1  UNL1        0.0000
      7 C          -4.5918    7.6354    4.5706 C.2     1  UNL1        0.0000
      8 C          -4.2696    6.3232    5.0010 C.2     1  UNL1        0.0000
      9 H          -4.7548    5.4177    4.6750 H       1  UNL1        0.0000
     10 C          -3.0084    7.7602    6.2751 C.3     1  UNL1        0.0000
     11 C          -5.9234    9.7682    2.6701 C.3     1  UNL1        0.0000
     12 H          -5.7387   10.6042    3.3378 H       1  UNL1        0.0000
     13 H          -6.8213    9.9990    2.1051 H       1  UNL1        0.0000
     14 H          -5.1005    9.7100    1.9652 H       1  UNL1        0.0000
     15 C          -6.7879    6.7945    2.4653 C.3     1  UNL1        0.0000
     16 H          -6.1632    6.6862    1.5855 H       1  UNL1        0.0000
     17 H          -7.7874    7.0465    2.1237 H       1  UNL1        0.0000
     18 H          -6.8513    5.8292    2.9582 H       1  UNL1        0.0000
     19 C          -7.4678    8.4290    4.9945 C.3     1  UNL1        0.0000
     20 H          -7.6740    7.5155    5.5444 H       1  UNL1        0.0000
     21 H          -8.4033    8.7706    4.5613 H       1  UNL1        0.0000
     22 H          -7.1463    9.1755    5.7147 H       1  UNL1        0.0000
     23 C          -0.4583    6.9752    7.7471 C.3     1  UNL1        0.0000
     24 H          -0.8821    6.1694    8.3385 H       1  UNL1        0.0000
     25 H           0.4425    7.3140    8.2488 H       1  UNL1        0.0000
     26 H          -0.1748    6.5624    6.7837 H       1  UNL1        0.0000
     27 C          -2.5452    8.8968    9.1062 C.3     1  UNL1        0.0000
     28 H          -3.2659    9.6933    8.9518 H       1  UNL1        0.0000
     29 H          -1.8086    9.2527    9.8186 H       1  UNL1        0.0000
     30 H          -3.0686    8.0625    9.5619 H       1  UNL1        0.0000
     31 C          -0.8330    9.8782    6.6666 C.3     1  UNL1        0.0000
     32 H          -0.4663    9.5809    5.6896 H       1  UNL1        0.0000
     33 H           0.0078   10.2326    7.2541 H       1  UNL1        0.0000
     34 H          -1.5096   10.7139    6.5180 H       1  UNL1        0.0000
@<TRIPOS>BOND
     1    16    15    1
     2    14    11    1
     3    13    11    1
     4    17    15    1
     5    15    18    1
     6    15     1    1
     7    11    12    1
     8    11     1    1
     9     1     7    1
    10     1    19    1
    11    21    19    1
    12     7     8    2
    13     7     3    1
    14     9     8    1
    15    19    20    1
    16    19    22    1
    17     8     5    1
    18     4     3    1
    19     3    10    1
    20    32    31    1
    21     5    10    1
    22     5     6    1
    23    10     2    1
    24    34    31    1
    25    31    33    1
    26    31     2    1
    27    26    23    1
    28     2    23    1
    29     2    27    1
    30    23    25    1
    31    23    24    1
    32    28    27    1
    33    27    30    1
    34    27    29    1
