@<TRIPOS>MOLECULE
1,2,4,5,7
 34 34 0 0 0
SMALL
GASTEIGER

@<TRIPOS>ATOM
      1 C          -1.5672    1.2081    6.6996 C.2     1  UNL1        0.0000
      2 C          -1.1872    0.3532    5.6360 C.3     1  UNL1        0.0000
      3 H          -0.8582   -0.6645    5.7635 H       1  UNL1        0.0000
      4 C          -1.3201    1.0067    4.3899 C.3     1  UNL1        0.0000
      5 C          -1.8046    2.3217    4.6951 C.3     1  UNL1        0.0000
      6 H          -2.1167    3.0473    3.9626 H       1  UNL1        0.0000
      7 C          -1.9650    2.4335    6.0874 C.2     1  UNL1        0.0000
      8 H          -2.3898    3.2694    6.6186 H       1  UNL1        0.0000
      9 SI         -1.8605    0.6132    8.4557 Si      1  UNL1        0.0000
     10 C          -3.1176   -0.8229    8.3071 C.3     1  UNL1        0.0000
     11 H          -4.0239   -0.5135    7.7949 H       1  UNL1        0.0000
     12 H          -3.4032   -1.1881    9.2889 H       1  UNL1        0.0000
     13 H          -2.6983   -1.6585    7.7553 H       1  UNL1        0.0000
     14 C          -2.6672    2.0126    9.4667 C.3     1  UNL1        0.0000
     15 H          -2.0280    2.8874    9.5107 H       1  UNL1        0.0000
     16 H          -2.8497    1.6888   10.4863 H       1  UNL1        0.0000
     17 H          -3.6203    2.3135    9.0428 H       1  UNL1        0.0000
     18 C          -0.2606   -0.0240    9.2672 C.3     1  UNL1        0.0000
     19 H           0.5726    0.0365    8.5748 H       1  UNL1        0.0000
     20 H          -0.3586   -1.0611    9.5729 H       1  UNL1        0.0000
     21 H           0.0011    0.5576   10.1451 H       1  UNL1        0.0000
     22 SI         -1.4109    0.0331    2.7861 Si      1  UNL1        0.0000
     23 C          -0.3154   -1.5207    2.9363 C.3     1  UNL1        0.0000
     24 H           0.4832   -1.3782    3.6559 H       1  UNL1        0.0000
     25 H           0.1423   -1.7758    1.9860 H       1  UNL1        0.0000
     26 H          -0.8982   -2.3774    3.2609 H       1  UNL1        0.0000
     27 C          -0.9908    0.9823    1.1870 C.3     1  UNL1        0.0000
     28 H          -1.6807    1.8028    1.0130 H       1  UNL1        0.0000
     29 H          -1.0715    0.3133    0.3355 H       1  UNL1        0.0000
     30 H           0.0190    1.3785    1.1923 H       1  UNL1        0.0000
     31 C          -3.2484   -0.4933    2.6566 C.3     1  UNL1        0.0000
     32 H          -3.5643   -1.0442    3.5376 H       1  UNL1        0.0000
     33 H          -3.4112   -1.1305    1.7926 H       1  UNL1        0.0000
     34 H          -3.9047    0.3666    2.5581 H       1  UNL1        0.0000
@<TRIPOS>BOND
     1    29    27    1
     2    28    27    1
     3    27    30    1
     4    27    22    1
     5    33    31    1
     6    25    23    1
     7    34    31    1
     8    31    22    1
     9    31    32    1
    10    22    23    1
    11    22     4    1
    12    23    26    1
    13    23    24    1
    14     6     5    1
    15     4     5    1
    16     4     2    1
    17     5     7    1
    18     2     3    1
    19     2     1    1
    20     7     8    1
    21     7     1    2
    22     1     9    1
    23    13    10    1
    24    11    10    1
    25    10     9    1
    26    10    12    1
    27     9    18    1
    28     9    14    1
    29    19    18    1
    30    17    14    1
    31    18    20    1
    32    18    21    1
    33    14    15    1
    34    14    16    1
