@<TRIPOS>MOLECULE
2,3,5,7,9
 22 22 0 0 0
SMALL
GASTEIGER

@<TRIPOS>ATOM
      1 SI          4.4559   13.3532    2.2780 Si      1  UNL1        0.0000
      2 C           2.8128   12.4529    2.1121 C.2     1  UNL1        0.0000
      3 C           1.5457   12.8045    2.6423 C.2     1  UNL1        0.0000
      4 H           1.3553   13.6557    3.2756 H       1  UNL1        0.0000
      5 C           0.5744   11.9043    2.1496 C.3     1  UNL1        0.0000
      6 H          -0.4947   11.9684    2.2616 H       1  UNL1        0.0000
      7 C           1.2343   10.9958    1.2809 C.2     1  UNL1        0.0000
      8 H           0.7516   10.2362    0.6868 H       1  UNL1        0.0000
      9 C           2.5976   11.3246    1.2683 C.2     1  UNL1        0.0000
     10 H           3.3566   10.8511    0.6689 H       1  UNL1        0.0000
     11 C           5.8104   12.2983    1.4562 C.3     1  UNL1        0.0000
     12 H           5.8478   11.3157    1.9159 H       1  UNL1        0.0000
     13 H           6.7877   12.7557    1.5743 H       1  UNL1        0.0000
     14 H           5.6360   12.1679    0.3921 H       1  UNL1        0.0000
     15 C           4.8891   13.6663    4.1010 C.3     1  UNL1        0.0000
     16 H           5.0195   12.7246    4.6227 H       1  UNL1        0.0000
     17 H           4.1074   14.2194    4.6121 H       1  UNL1        0.0000
     18 H           5.8110   14.2307    4.1969 H       1  UNL1        0.0000
     19 C           4.2557   15.0215    1.3651 C.3     1  UNL1        0.0000
     20 H           5.1844   15.5817    1.3898 H       1  UNL1        0.0000
     21 H           3.4888   15.6367    1.8252 H       1  UNL1        0.0000
     22 H           3.9832   14.8806    0.3239 H       1  UNL1        0.0000
@<TRIPOS>BOND
     1    22    19    1
     2    14    11    1
     3    10     9    1
     4     8     7    1
     5     9     7    2
     6     9     2    1
     7     7     5    1
     8    19    20    1
     9    19    21    1
    10    19     1    1
    11    11    13    1
    12    11    12    1
    13    11     1    1
    14     2     1    1
    15     2     3    2
    16     5     6    1
    17     5     3    1
    18     1    15    1
    19     3     4    1
    20    15    18    1
    21    15    17    1
    22    15    16    1
