@<TRIPOS>MOLECULE
2,3,5,7,9
 22 22 0 0 0
SMALL
GASTEIGER

@<TRIPOS>ATOM
      1 SI         -2.1080   12.6517    2.6821 Si      1  UNL1        0.0000
      2 C          -1.2682   11.4558    3.9029 C.2     1  UNL1        0.0000
      3 C           0.0977   11.4577    4.2725 C.2     1  UNL1        0.0000
      4 H           0.8854   12.0014    3.7654 H       1  UNL1        0.0000
      5 C           0.2418   10.8248    5.5367 C.2     1  UNL1        0.0000
      6 H           1.1278   10.8545    6.1626 H       1  UNL1        0.0000
      7 C          -1.0596   10.4407    5.9704 C.2     1  UNL1        0.0000
      8 H          -1.3117   10.0743    6.9575 H       1  UNL1        0.0000
      9 C          -1.9666   10.8065    4.9615 C.3     1  UNL1        0.0000
     10 H          -3.0434   10.7548    5.0510 H       1  UNL1        0.0000
     11 C          -2.2986   14.2479    3.7028 C.3     1  UNL1        0.0000
     12 H          -2.7897   15.0162    3.1145 H       1  UNL1        0.0000
     13 H          -1.3368   14.6412    4.0189 H       1  UNL1        0.0000
     14 H          -2.8953   14.0872    4.5959 H       1  UNL1        0.0000
     15 C          -3.8129   11.9825    2.1507 C.3     1  UNL1        0.0000
     16 H          -4.3501   12.7593    1.6154 H       1  UNL1        0.0000
     17 H          -4.4269   11.7043    3.0026 H       1  UNL1        0.0000
     18 H          -3.7521   11.1251    1.4864 H       1  UNL1        0.0000
     19 C          -1.0230   12.9715    1.1459 C.3     1  UNL1        0.0000
     20 H          -1.0063   12.1373    0.4501 H       1  UNL1        0.0000
     21 H           0.0023   13.2165    1.4075 H       1  UNL1        0.0000
     22 H          -1.4244   13.8228    0.6050 H       1  UNL1        0.0000
@<TRIPOS>BOND
     1    20    19    1
     2    22    19    1
     3    19    21    1
     4    19     1    1
     5    18    15    1
     6    16    15    1
     7    15     1    1
     8    15    17    1
     9     1    11    1
    10     1     2    1
    11    12    11    1
    12    11    13    1
    13    11    14    1
    14     4     3    1
    15     2     3    2
    16     2     9    1
    17     3     5    1
    18     9    10    1
    19     9     7    1
    20     5     7    2
    21     5     6    1
    22     7     8    1
