@<TRIPOS>MOLECULE
2,3,5,7,9
 22 22 0 0 0
SMALL
GASTEIGER

@<TRIPOS>ATOM
      1 SI         -3.1356    6.3751    4.6273 Si      1  UNL1        0.0000
      2 C          -2.0548    7.4084    3.4483 C.2     1  UNL1        0.0000
      3 C          -2.4588    8.5960    2.7897 C.3     1  UNL1        0.0000
      4 H          -3.4228    9.0706    2.9149 H       1  UNL1        0.0000
      5 C          -1.5238    8.9099    1.7733 C.2     1  UNL1        0.0000
      6 H          -1.6430    9.6741    1.0172 H       1  UNL1        0.0000
      7 C          -0.5276    7.9205    1.7842 C.2     1  UNL1        0.0000
      8 H           0.2637    7.8027    1.0519 H       1  UNL1        0.0000
      9 C          -0.8236    7.0157    2.8374 C.2     1  UNL1        0.0000
     10 H          -0.3288    6.0631    2.9935 H       1  UNL1        0.0000
     11 C          -3.4961    7.4662    6.1515 C.3     1  UNL1        0.0000
     12 H          -3.9978    8.3908    5.8786 H       1  UNL1        0.0000
     13 H          -2.5836    7.7220    6.6844 H       1  UNL1        0.0000
     14 H          -4.1442    6.9453    6.8486 H       1  UNL1        0.0000
     15 C          -4.7334    5.9680    3.6736 C.3     1  UNL1        0.0000
     16 H          -5.3849    5.3483    4.2805 H       1  UNL1        0.0000
     17 H          -4.5251    5.4231    2.7577 H       1  UNL1        0.0000
     18 H          -5.2905    6.8606    3.4055 H       1  UNL1        0.0000
     19 C          -2.1710    4.8056    5.1019 C.3     1  UNL1        0.0000
     20 H          -1.2276    5.0345    5.5888 H       1  UNL1        0.0000
     21 H          -1.9595    4.1872    4.2346 H       1  UNL1        0.0000
     22 H          -2.7536    4.2029    5.7908 H       1  UNL1        0.0000
@<TRIPOS>BOND
     1     6     5    1
     2     8     7    1
     3     5     7    2
     4     5     3    1
     5     7     9    1
     6    17    15    1
     7     3     4    1
     8     3     2    1
     9     9    10    1
    10     9     2    2
    11    18    15    1
    12     2     1    1
    13    15    16    1
    14    15     1    1
    15    21    19    1
    16     1    19    1
    17     1    11    1
    18    19    20    1
    19    19    22    1
    20    12    11    1
    21    11    13    1
    22    11    14    1
