@<TRIPOS>MOLECULE
1,2,3,4,5
 10 10 0 0 0
SMALL
GASTEIGER

@<TRIPOS>ATOM
      1 C           5.7983   -6.4473   12.5830 C.2     1  UNL1       -0.0654
      2 C           6.3845   -6.1485   11.3325 C.2     1  UNL1       -0.0654
      3 C           7.6292   -5.5129   11.5754 C.2     1  UNL1       -0.0763
      4 C           7.7778   -5.3716   12.9659 C.3     1  UNL1        0.0054
      5 C           6.6343   -5.9478   13.5915 C.2     1  UNL1       -0.0763
      6 H           4.8853   -6.9990   12.7329 H       1  UNL1        0.0615
      7 H           6.0245   -6.4792   10.3722 H       1  UNL1        0.0615
      8 H           8.3627   -5.2632   10.8267 H       1  UNL1        0.0578
      9 H           8.6566   -5.0153   13.4801 H       1  UNL1        0.0394
     10 H           6.5114   -6.0956   14.6517 H       1  UNL1        0.0578
@<TRIPOS>BOND
     1     7     2    1
     2     8     3    1
     3     2     3    2
     4     2     1    1
     5     3     4    1
     6     1     6    1
     7     1     5    2
     8     4     9    1
     9     4     5    1
    10     5    10    1
