@<TRIPOS>MOLECULE
1,2,3,4,5
 25 25 0 0 0
SMALL
GASTEIGER

@<TRIPOS>ATOM
      1 C           9.7238    9.1466   10.6640 C.2     1  UNL1       -0.0584
      2 C          10.5218    9.8812   11.5753 C.3     1  UNL1        0.0231
      3 C          11.8543    9.4018   11.4815 C.2     1  UNL1       -0.0584
      4 C          11.8941    8.3877   10.4835 C.2     1  UNL1       -0.0477
      5 C          10.5599    8.1890   10.0219 C.2     1  UNL1       -0.0477
      6 C           8.4191    9.6431   10.0872 C.3     1  UNL1       -0.0424
      7 H           8.6243   10.5276    9.4783 H       1  UNL1        0.0275
      8 H           7.6875    9.9450   10.8382 H       1  UNL1        0.0275
      9 H           7.9646    8.9057    9.4280 H       1  UNL1        0.0275
     10 C          10.1205   11.1317   12.3072 C.3     1  UNL1       -0.0510
     11 H          10.6221   11.9952   11.8652 H       1  UNL1        0.0242
     12 H          10.3980   11.0868   13.3594 H       1  UNL1        0.0242
     13 H           9.0485   11.3042   12.2404 H       1  UNL1        0.0242
     14 C          13.0607   10.1008   12.0449 C.3     1  UNL1       -0.0424
     15 H          13.3352   10.9419   11.4012 H       1  UNL1        0.0275
     16 H          13.9196    9.4325   12.0931 H       1  UNL1        0.0275
     17 H          12.8578   10.4977   13.0370 H       1  UNL1        0.0275
     18 C          13.1682    7.9279    9.8213 C.3     1  UNL1       -0.0395
     19 H          13.7118    8.8035    9.4589 H       1  UNL1        0.0278
     20 H          12.9564    7.2961    8.9627 H       1  UNL1        0.0278
     21 H          13.8246    7.3784   10.4973 H       1  UNL1        0.0278
     22 C          10.1309    7.3150    8.8705 C.3     1  UNL1       -0.0395
     23 H          10.0925    7.8927    7.9431 H       1  UNL1        0.0278
     24 H           9.1394    6.8903    9.0401 H       1  UNL1        0.0278
     25 H          10.8249    6.4897    8.7223 H       1  UNL1        0.0278
@<TRIPOS>BOND
     1    23    22    1
     2    25    22    1
     3    22    24    1
     4    22     5    1
     5    20    18    1
     6     9     6    1
     7    19    18    1
     8     7     6    1
     9    18     4    1
    10    18    21    1
    11     5     4    1
    12     5     1    2
    13     6     1    1
    14     6     8    1
    15     4     3    2
    16     1     2    1
    17    15    14    1
    18     3     2    1
    19     3    14    1
    20     2    10    1
    21    11    10    1
    22    14    16    1
    23    14    17    1
    24    13    10    1
    25    10    12    1
