@<TRIPOS>MOLECULE
1,3,5,7,9
 10 10 0 0 0
SMALL
GASTEIGER

@<TRIPOS>ATOM
      1 C           1.1486   11.0648    8.2471 C.3     1  UNL1       -0.0127
      2 H           0.4833   11.3085    7.4282 H       1  UNL1        0.0352
      3 C           1.8411   12.0101    9.0584 C.2     1  UNL1       -0.0837
      4 H           1.7444   13.0872    8.9920 H       1  UNL1        0.0572
      5 C           2.7927   11.3228    9.8304 C.2     1  UNL1       -0.0837
      6 H           3.5620   11.7804   10.4375 H       1  UNL1        0.0572
      7 C           2.7128    9.9378    9.4888 C.3     1  UNL1       -0.0127
      8 H           3.4222    9.1759    9.7883 H       1  UNL1        0.0352
      9 C           1.7292    9.7914    8.4881 C.3     1  UNL1       -0.0235
     10 H           1.5229    8.8852    7.9352 H       1  UNL1        0.0315
@<TRIPOS>BOND
     1     2     1    1
     2    10     9    1
     3     1     9    1
     4     1     3    1
     5     9     7    1
     6     4     3    1
     7     3     5    2
     8     7     8    1
     9     7     5    1
    10     5     6    1
