@<TRIPOS>MOLECULE
1,3,5,7,9
 10 10 0 0 0
SMALL
GASTEIGER

@<TRIPOS>ATOM
      1 C          -1.0866   20.5644    8.3278 C.3     1  UNL1       -0.0127
      2 H          -1.2754   21.6222    8.1912 H       1  UNL1        0.0352
      3 C          -1.0239   19.5980    7.3018 C.3     1  UNL1       -0.0235
      4 H          -1.1467   19.7870    6.2442 H       1  UNL1        0.0315
      5 C          -0.9558   18.3125    7.9121 C.3     1  UNL1       -0.0127
      6 H          -1.0501   17.3645    7.3990 H       1  UNL1        0.0352
      7 C          -1.0076   18.5046    9.3148 C.2     1  UNL1       -0.0837
      8 H          -1.1390   17.7154   10.0440 H       1  UNL1        0.0572
      9 C          -1.0664   19.8919    9.5814 C.2     1  UNL1       -0.0837
     10 H          -1.2562   20.3506   10.5425 H       1  UNL1        0.0572
@<TRIPOS>BOND
     1     4     3    1
     2     3     5    1
     3     3     1    1
     4     6     5    1
     5     5     7    1
     6     2     1    1
     7     1     9    1
     8     7     9    2
     9     7     8    1
    10     9    10    1
