@<TRIPOS>MOLECULE
1,3,5,7,9
 10 10 0 0 0
SMALL
GASTEIGER

@<TRIPOS>ATOM
      1 C           6.8279    4.8189    4.5258 C.2     1  UNL1       -0.0837
      2 H           7.4940    4.8732    5.3787 H       1  UNL1        0.0572
      3 C           7.0593    5.4245    3.2604 C.3     1  UNL1       -0.0127
      4 H           7.9075    6.0465    3.0036 H       1  UNL1        0.0352
      5 C           5.8583    5.3099    2.5084 C.3     1  UNL1       -0.0235
      6 H           5.6547    5.7847    1.5584 H       1  UNL1        0.0315
      7 C           4.9219    4.5928    3.2825 C.3     1  UNL1       -0.0127
      8 H           3.8742    4.4636    3.0385 H       1  UNL1        0.0352
      9 C           5.5211    4.2935    4.5420 C.2     1  UNL1       -0.0837
     10 H           5.0072    3.9030    5.4097 H       1  UNL1        0.0572
@<TRIPOS>BOND
     1     6     5    1
     2     5     3    1
     3     5     7    1
     4     4     3    1
     5     8     7    1
     6     3     1    1
     7     7     9    1
     8     1     9    2
     9     1     2    1
    10     9    10    1
