@<TRIPOS>MOLECULE
1,2,3,4,5
 25 25 0 0 0
SMALL
GASTEIGER

@<TRIPOS>ATOM
      1 C          12.7135   -0.5156   13.2148 C.3     1  UNL1        0.0052
      2 C          12.1431   -0.1249   11.9563 C.3     1  UNL1       -0.0053
      3 C          11.6752    1.2246   12.1042 C.3     1  UNL1        0.0052
      4 C          11.9955    1.6577   13.4309 C.2     1  UNL1       -0.0658
      5 C          12.6134    0.5758   14.1197 C.2     1  UNL1       -0.0658
      6 C          12.8533   -1.9384   13.6728 C.3     1  UNL1       -0.0545
      7 C          11.6875   -1.1171   10.9230 C.3     1  UNL1       -0.0574
      8 C          10.6963    1.9561   11.2318 C.3     1  UNL1       -0.0545
      9 C          11.4437    2.9034   14.0564 C.3     1  UNL1       -0.0430
     10 C          12.7831    0.4390   15.6037 C.3     1  UNL1       -0.0430
     11 H          13.5963   -2.0465   14.4591 H       1  UNL1        0.0239
     12 H          13.0969   -2.6113   12.8562 H       1  UNL1        0.0239
     13 H          11.8917   -2.2588   14.0866 H       1  UNL1        0.0239
     14 H          11.1666   -0.6239   10.1058 H       1  UNL1        0.0236
     15 H          10.9958   -1.8327   11.3754 H       1  UNL1        0.0236
     16 H          12.5205   -1.6823   10.5023 H       1  UNL1        0.0236
     17 H          11.1063    2.9025   10.8763 H       1  UNL1        0.0239
     18 H          10.4063    1.3565   10.3724 H       1  UNL1        0.0239
     19 H           9.7922    2.1776   11.8028 H       1  UNL1        0.0239
     20 H          12.0771    3.2629   14.8625 H       1  UNL1        0.0275
     21 H          10.4503    2.6983   14.4646 H       1  UNL1        0.0275
     22 H          11.3539    3.6978   13.3191 H       1  UNL1        0.0275
     23 H          13.7865    0.1153   15.8758 H       1  UNL1        0.0275
     24 H          12.5722    1.3755   16.1120 H       1  UNL1        0.0275
     25 H          12.0770   -0.3089   15.9732 H       1  UNL1        0.0275
@<TRIPOS>BOND
     1    14     7    1
     2    18     8    1
     3    16     7    1
     4    17     8    1
     5     7    15    1
     6     7     2    1
     7     8    19    1
     8     8     3    1
     9     2     3    1
    10     2     1    1
    11     3     4    1
    12    12     6    1
    13     1     6    1
    14     1     5    1
    15    22     9    1
    16     4     9    1
    17     4     5    2
    18     6    13    1
    19     6    11    1
    20     9    21    1
    21     9    20    1
    22     5    10    1
    23    10    23    1
    24    10    25    1
    25    10    24    1
