@<TRIPOS>MOLECULE
1,2,3,4,5
 25 25 0 0 0
SMALL
GASTEIGER

@<TRIPOS>ATOM
      1 C           8.2534    3.1031    5.2657 C.2     1  UNL1       -0.0477
      2 C           9.6368    2.8841    5.5990 C.2     1  UNL1       -0.0584
      3 C           9.6751    1.9459    6.6606 C.3     1  UNL1        0.0231
      4 C           8.3158    1.5970    7.0016 C.2     1  UNL1       -0.0584
      5 C           7.4522    2.3154    6.1417 C.2     1  UNL1       -0.0477
      6 C           7.6769    4.2462    4.4802 C.3     1  UNL1       -0.0395
      7 C          10.8084    3.7264    5.1835 C.3     1  UNL1       -0.0424
      8 C          10.8659    1.6151    7.5051 C.3     1  UNL1       -0.0510
      9 C           7.9044    0.8547    8.2343 C.3     1  UNL1       -0.0424
     10 C           5.9578    2.3969    6.2337 C.3     1  UNL1       -0.0395
     11 H           7.9729    1.5170    9.1006 H       1  UNL1        0.0275
     12 H           5.5401    1.4827    6.6499 H       1  UNL1        0.0278
     13 H           7.0475    4.8479    5.1392 H       1  UNL1        0.0278
     14 H           8.4567    4.8948    4.0876 H       1  UNL1        0.0278
     15 H           7.0534    3.9038    3.6528 H       1  UNL1        0.0278
     16 H          11.1740    4.2937    6.0430 H       1  UNL1        0.0275
     17 H          11.6352    3.1177    4.8150 H       1  UNL1        0.0275
     18 H          10.5359    4.4376    4.4071 H       1  UNL1        0.0275
     19 H          10.8828    0.5534    7.7514 H       1  UNL1        0.0242
     20 H          11.7929    1.8670    6.9935 H       1  UNL1        0.0242
     21 H          10.8274    2.1763    8.4421 H       1  UNL1        0.0242
     22 H           6.8790    0.4984    8.1538 H       1  UNL1        0.0275
     23 H           8.5526   -0.0023    8.4093 H       1  UNL1        0.0275
     24 H           5.6669    3.2285    6.8808 H       1  UNL1        0.0278
     25 H           5.5158    2.5594    5.2520 H       1  UNL1        0.0278
@<TRIPOS>BOND
     1    15     6    1
     2    14     6    1
     3    18     7    1
     4     6    13    1
     5     6     1    1
     6    17     7    1
     7     7     2    1
     8     7    16    1
     9    25    10    1
    10     1     2    2
    11     1     5    1
    12     2     3    1
    13     5    10    1
    14     5     4    2
    15    10    12    1
    16    10    24    1
    17     3     4    1
    18     3     8    1
    19    20     8    1
    20     4     9    1
    21     8    19    1
    22     8    21    1
    23    22     9    1
    24     9    23    1
    25     9    11    1
