@<TRIPOS>MOLECULE
2,3,4,5,14
 31 31 0 0 0
SMALL
GASTEIGER

@<TRIPOS>ATOM
      1 SI         -3.6540    2.7700    2.5362 Si      1  UNL1        0.0000
      2 C           0.3851    3.0213    1.6926 C.2     1  UNL1        0.0000
      3 C          -1.8219    3.1537    2.3650 C.3     1  UNL1        0.0000
      4 C          -0.8285    2.3006    1.7885 C.3     1  UNL1        0.0000
      5 C          -1.1831    4.4086    2.6401 C.3     1  UNL1        0.0000
      6 C          -1.9205    5.6851    2.9388 C.3     1  UNL1        0.0000
      7 H          -1.3091    6.3948    3.4937 H       1  UNL1        0.0000
      8 H          -2.8315    5.4931    3.5002 H       1  UNL1        0.0000
      9 H          -2.2035    6.1675    1.9994 H       1  UNL1        0.0000
     10 C          -1.0249    0.9097    1.2575 C.3     1  UNL1        0.0000
     11 H          -1.1836    0.9351    0.1764 H       1  UNL1        0.0000
     12 H          -1.8867    0.4296    1.7169 H       1  UNL1        0.0000
     13 H          -0.1422    0.2979    1.4543 H       1  UNL1        0.0000
     14 C           0.1731    4.3252    2.2226 C.2     1  UNL1        0.0000
     15 C           1.1002    5.4915    2.0043 C.3     1  UNL1        0.0000
     16 H           1.1619    5.7041    0.9342 H       1  UNL1        0.0000
     17 H           2.1123    5.2981    2.3575 H       1  UNL1        0.0000
     18 H           0.7301    6.3888    2.4930 H       1  UNL1        0.0000
     19 C           1.6042    2.5377    0.9586 C.3     1  UNL1        0.0000
     20 H           1.3257    2.2426   -0.0545 H       1  UNL1        0.0000
     21 H           2.0465    1.6676    1.4471 H       1  UNL1        0.0000
     22 H           2.3576    3.3191    0.8886 H       1  UNL1        0.0000
     23 C          -4.2310    3.2303    4.3013 C.3     1  UNL1        0.0000
     24 H          -3.3769    3.3311    4.9690 H       1  UNL1        0.0000
     25 H          -4.8612    2.4458    4.7056 H       1  UNL1        0.0000
     26 H          -4.8104    4.1494    4.3214 H       1  UNL1        0.0000
     27 C          -4.6291    3.8355    1.2867 C.3     1  UNL1        0.0000
     28 H          -5.6876    3.6101    1.3534 H       1  UNL1        0.0000
     29 H          -4.3149    3.6337    0.2685 H       1  UNL1        0.0000
     30 H          -4.5102    4.8994    1.4605 H       1  UNL1        0.0000
     31 H          -3.9882    1.3699    2.2238 H       1  UNL1        0.0000
@<TRIPOS>BOND
     1    20    19    1
     2    11    10    1
     3    29    27    1
     4    22    19    1
     5    16    15    1
     6    19    21    1
     7    19     2    1
     8    10    13    1
     9    10    12    1
    10    10     4    1
    11    27    28    1
    12    27    30    1
    13    27     1    1
    14     2     4    1
    15     2    14    2
    16     4     3    1
    17     9     6    1
    18    15    14    1
    19    15    17    1
    20    15    18    1
    21    14     5    1
    22    31     1    1
    23     3     1    1
    24     3     5    1
    25     1    23    1
    26     5     6    1
    27     6     7    1
    28     6     8    1
    29    23    26    1
    30    23    25    1
    31    23    24    1
