@<TRIPOS>MOLECULE
2,3,4,5,14
 31 31 0 0 0
SMALL
GASTEIGER

@<TRIPOS>ATOM
      1 SI          2.9134    2.7701    5.7745 Si      1  UNL1        0.0000
      2 C          -1.1256    3.0213    6.6182 C.2     1  UNL1        0.0000
      3 C           1.0814    3.1537    5.9457 C.3     1  UNL1        0.0000
      4 C           0.0880    2.3006    6.5223 C.2     1  UNL1        0.0000
      5 C           0.4425    4.4086    5.6706 C.2     1  UNL1        0.0000
      6 C           1.1799    5.6851    5.3720 C.3     1  UNL1        0.0000
      7 H           0.5686    6.3949    4.8171 H       1  UNL1        0.0000
      8 H           2.0909    5.4931    4.8106 H       1  UNL1        0.0000
      9 H           1.4628    6.1675    6.3114 H       1  UNL1        0.0000
     10 C           0.2843    0.9097    7.0534 C.3     1  UNL1        0.0000
     11 H           0.4427    0.9351    8.1345 H       1  UNL1        0.0000
     12 H           1.1463    0.4297    6.5942 H       1  UNL1        0.0000
     13 H          -0.5983    0.2979    6.8563 H       1  UNL1        0.0000
     14 C          -0.9136    4.3251    6.0881 C.2     1  UNL1        0.0000
     15 C          -1.8408    5.4915    6.3066 C.3     1  UNL1        0.0000
     16 H          -1.9027    5.7038    7.3766 H       1  UNL1        0.0000
     17 H          -2.8529    5.2981    5.9531 H       1  UNL1        0.0000
     18 H          -1.4706    6.3889    5.8182 H       1  UNL1        0.0000
     19 C          -2.3447    2.5377    7.3522 C.3     1  UNL1        0.0000
     20 H          -2.0662    2.2424    8.3653 H       1  UNL1        0.0000
     21 H          -2.7872    1.6678    6.8636 H       1  UNL1        0.0000
     22 H          -3.0981    3.3192    7.4224 H       1  UNL1        0.0000
     23 C           3.4904    3.2304    4.0094 C.3     1  UNL1        0.0000
     24 H           2.6358    3.3315    3.3419 H       1  UNL1        0.0000
     25 H           4.1202    2.4453    3.6048 H       1  UNL1        0.0000
     26 H           4.0702    4.1494    3.9893 H       1  UNL1        0.0000
     27 C           3.8887    3.8355    7.0239 C.3     1  UNL1        0.0000
     28 H           4.9473    3.6102    6.9570 H       1  UNL1        0.0000
     29 H           3.5747    3.6336    8.0422 H       1  UNL1        0.0000
     30 H           3.7697    4.8994    6.8502 H       1  UNL1        0.0000
     31 H           3.2476    1.3700    6.0869 H       1  UNL1        0.0000
@<TRIPOS>BOND
     1    24    23    1
     2    25    23    1
     3    26    23    1
     4    23     1    1
     5     8     6    1
     6     7     6    1
     7     6     5    1
     8     6     9    1
     9     5     3    1
    10     5    14    2
    11     1     3    1
    12     1    31    1
    13     1    27    1
    14    18    15    1
    15     3     4    1
    16    17    15    1
    17    14    15    1
    18    14     2    1
    19    15    16    1
    20     4     2    2
    21     4    10    1
    22    12    10    1
    23     2    19    1
    24    30    27    1
    25    13    10    1
    26    21    19    1
    27    28    27    1
    28    27    29    1
    29    10    11    1
    30    19    22    1
    31    19    20    1
