@<TRIPOS>MOLECULE
1,2,3,4,5
 25 25 0 0 0
SMALL
GASTEIGER

@<TRIPOS>ATOM
      1 C          -3.4054    5.8612   10.0612 C.3     1  UNL1       -0.0053
      2 C          -3.4949    6.3329    8.6984 C.3     1  UNL1        0.0052
      3 C          -3.9845    7.7018    8.7306 C.2     1  UNL1       -0.0658
      4 C          -4.0256    8.1093   10.0536 C.2     1  UNL1       -0.0658
      5 C          -3.5719    7.0086   10.8949 C.3     1  UNL1        0.0052
      6 C          -3.4080    4.4299   10.5023 C.3     1  UNL1       -0.0574
      7 H          -2.9346    4.3153   11.4732 H       1  UNL1        0.0236
      8 H          -2.8884    3.7994    9.7875 H       1  UNL1        0.0236
      9 H          -4.4410    4.0853   10.5775 H       1  UNL1        0.0236
     10 C          -3.5230    5.4743    7.4769 C.3     1  UNL1       -0.0545
     11 H          -2.9043    4.5903    7.6065 H       1  UNL1        0.0239
     12 H          -3.1536    6.0232    6.6141 H       1  UNL1        0.0239
     13 H          -4.5475    5.1578    7.2703 H       1  UNL1        0.0239
     14 C          -4.4296    8.4515    7.5214 C.3     1  UNL1       -0.0430
     15 H          -5.3578    8.0219    7.1400 H       1  UNL1        0.0275
     16 H          -3.6827    8.3834    6.7326 H       1  UNL1        0.0275
     17 H          -4.6038    9.5023    7.7444 H       1  UNL1        0.0275
     18 C          -4.5255    9.3977   10.6125 C.3     1  UNL1       -0.0430
     19 H          -5.4507    9.2231   11.1648 H       1  UNL1        0.0275
     20 H          -4.7254   10.1209    9.8259 H       1  UNL1        0.0275
     21 H          -3.8031    9.8234   11.3085 H       1  UNL1        0.0275
     22 C          -3.7362    6.9927   12.3846 C.3     1  UNL1       -0.0545
     23 H          -3.1702    6.1786   12.8292 H       1  UNL1        0.0239
     24 H          -4.7896    6.8643   12.6418 H       1  UNL1        0.0239
     25 H          -3.3915    7.9262   12.8233 H       1  UNL1        0.0239
@<TRIPOS>BOND
     1    12    10    1
     2    16    14    1
     3    15    14    1
     4    13    10    1
     5    10    11    1
     6    10     2    1
     7    14    17    1
     8    14     3    1
     9     2     3    1
    10     2     1    1
    11     3     4    2
    12     8     6    1
    13    20    18    1
    14     4    18    1
    15     4     5    1
    16     1     6    1
    17     1     5    1
    18     6     9    1
    19     6     7    1
    20    18    19    1
    21    18    21    1
    22     5    22    1
    23    22    24    1
    24    22    25    1
    25    22    23    1
