@<TRIPOS>MOLECULE
1,2,3,4,5
 13 13 0 0 0
SMALL
GASTEIGER

@<TRIPOS>ATOM
      1 C           8.9371    4.7514    6.1608 C.2     1  UNL1       -0.0761
      2 C           7.7713    5.5023    5.9085 C.3     1  UNL1        0.0084
      3 C           9.5789    4.5061    4.9291 C.2     1  UNL1       -0.0651
      4 C           8.8347    5.1516    3.9217 C.2     1  UNL1       -0.0625
      5 C           7.7084    5.7746    4.5227 C.2     1  UNL1       -0.0650
      6 C           6.7996    6.7661    3.8654 C.3     1  UNL1       -0.0429
      7 H          10.5596    4.0655    4.8034 H       1  UNL1        0.0615
      8 H           9.1443    5.2772    2.8925 H       1  UNL1        0.0617
      9 H           7.1357    5.9497    6.6628 H       1  UNL1        0.0397
     10 H           9.3653    4.5645    7.1383 H       1  UNL1        0.0578
     11 H           5.7751    6.6680    4.2230 H       1  UNL1        0.0275
     12 H           7.1421    7.7790    4.0947 H       1  UNL1        0.0275
     13 H           6.8072    6.6402    2.7846 H       1  UNL1        0.0275
@<TRIPOS>BOND
     1    13     6    1
     2     8     4    1
     3     6    12    1
     4     6    11    1
     5     6     5    1
     6     4     5    2
     7     4     3    1
     8     5     2    1
     9     7     3    1
    10     3     1    2
    11     2     1    1
    12     2     9    1
    13     1    10    1
