@<TRIPOS>MOLECULE
1,2,3,4,5
 25 25 0 0 0
SMALL
GASTEIGER

@<TRIPOS>ATOM
      1 C           2.3381    0.4183    5.2186 C.3     1  UNL1        0.0231
      2 C           3.3650    1.3048    4.7764 C.2     1  UNL1       -0.0584
      3 C           3.4631    1.1895    3.3558 C.2     1  UNL1       -0.0477
      4 C           2.5044    0.2287    2.9224 C.2     1  UNL1       -0.0477
      5 C           1.7907   -0.2275    4.0733 C.2     1  UNL1       -0.0584
      6 C           2.0648    0.0311    6.6393 C.3     1  UNL1       -0.0510
      7 C           4.3624    1.9923    5.6593 C.3     1  UNL1       -0.0424
      8 C           4.5710    1.7372    2.5086 C.3     1  UNL1       -0.0395
      9 C           2.5124   -0.4597    1.5927 C.3     1  UNL1       -0.0395
     10 C           0.8849   -1.4213    4.0952 C.3     1  UNL1       -0.0424
     11 H           0.2136   -1.4006    4.9524 H       1  UNL1        0.0275
     12 H           1.4863   -2.3322    4.1588 H       1  UNL1        0.0275
     13 H           0.2794   -1.4782    3.1913 H       1  UNL1        0.0275
     14 H           1.0249   -0.2622    6.7794 H       1  UNL1        0.0242
     15 H           2.2822    0.8464    7.3276 H       1  UNL1        0.0242
     16 H           2.6953   -0.8194    6.9117 H       1  UNL1        0.0242
     17 H           4.7449    2.8992    5.1944 H       1  UNL1        0.0275
     18 H           5.2057    1.3218    5.8444 H       1  UNL1        0.0275
     19 H           5.3775    1.0018    2.4487 H       1  UNL1        0.0278
     20 H           2.8645    0.2003    0.8031 H       1  UNL1        0.0278
     21 H           3.9263    2.2617    6.6198 H       1  UNL1        0.0275
     22 H           4.9767    2.6537    2.9317 H       1  UNL1        0.0278
     23 H           4.2280    1.9518    1.4975 H       1  UNL1        0.0278
     24 H           1.5228   -0.8216    1.3208 H       1  UNL1        0.0278
     25 H           3.1844   -1.3211    1.6441 H       1  UNL1        0.0278
@<TRIPOS>BOND
     1    20     9    1
     2    24     9    1
     3    23     8    1
     4     9    25    1
     5     9     4    1
     6    19     8    1
     7     8    22    1
     8     8     3    1
     9     4     3    1
    10     4     5    2
    11    13    10    1
    12     3     2    2
    13     5    10    1
    14     5     1    1
    15    10    12    1
    16    10    11    1
    17     2     1    1
    18     2     7    1
    19    17     7    1
    20     1     6    1
    21     7    18    1
    22     7    21    1
    23     6    14    1
    24     6    16    1
    25     6    15    1
