@<TRIPOS>MOLECULE
1,2,4,6,8
 34 37 0 0 0
SMALL
GASTEIGER

@<TRIPOS>ATOM
      1 C           1.9984   12.7478   10.5061 C.2     1  UNL1       -0.0474
      2 C           3.3726   12.7169   10.1725 C.2     1  UNL1       -0.0729
      3 H           4.1984   12.8692   10.8543 H       1  UNL1        0.0581
      4 C           3.5080   12.2120    8.8602 C.3     1  UNL1        0.0057
      5 H           4.4402   11.9304    8.3904 H       1  UNL1        0.0394
      6 C           2.2169   11.9423    8.3684 C.2     1  UNL1       -0.0761
      7 H           1.9779   11.4314    7.4428 H       1  UNL1        0.0578
      8 C           1.2926   12.2779    9.3767 C.2     1  UNL1       -0.0619
      9 H           0.2353   12.0608    9.3341 H       1  UNL1        0.0617
     10 C           1.4125   13.1045   11.8577 C.3     1  UNL1       -0.0105
     11 H           1.3080   14.2010   11.9105 H       1  UNL1        0.0354
     12 C           0.0209   12.4932   12.0917 C.3     1  UNL1       -0.0335
     13 H          -0.6525   12.7947   11.2824 H       1  UNL1        0.0307
     14 C          -0.5460   13.0109   13.4147 C.3     1  UNL1       -0.0468
     15 H          -0.6251   14.1011   13.3876 H       1  UNL1        0.0271
     16 H          -1.5507   12.6081   13.5677 H       1  UNL1        0.0271
     17 C           0.3629   12.5850   14.5661 C.3     1  UNL1       -0.0403
     18 H          -0.0451   12.9589   15.5125 H       1  UNL1        0.0301
     19 C           1.7576   13.1644   14.3453 C.3     1  UNL1       -0.0468
     20 H           2.4180   12.8648   15.1631 H       1  UNL1        0.0271
     21 H           1.7096   14.2559   14.3426 H       1  UNL1        0.0271
     22 C           2.3213   12.6580   13.0177 C.3     1  UNL1       -0.0335
     23 H           3.3227   13.0783   12.8820 H       1  UNL1        0.0307
     24 C           0.1052   10.9675   12.1442 C.3     1  UNL1       -0.0468
     25 H           0.5008   10.5802   11.2041 H       1  UNL1        0.0271
     26 H          -0.8945   10.5495   12.2898 H       1  UNL1        0.0271
     27 C           0.4525   11.0606   14.6140 C.3     1  UNL1       -0.0473
     28 H          -0.5390   10.6338   14.7845 H       1  UNL1        0.0271
     29 H           1.0957   10.7524   15.4418 H       1  UNL1        0.0271
     30 C           2.4102   11.1330   13.0570 C.3     1  UNL1       -0.0468
     31 H           2.8120   10.7622   12.1118 H       1  UNL1        0.0271
     32 H           3.0863   10.8233   13.8580 H       1  UNL1        0.0271
     33 C           1.0195   10.5461   13.2917 C.3     1  UNL1       -0.0403
     34 H           1.0850    9.4524   13.3242 H       1  UNL1        0.0301
@<TRIPOS>BOND
     1     7     6    1
     2     6     4    1
     3     6     8    2
     4     5     4    1
     5     4     2    1
     6     9     8    1
     7     8     1    1
     8     2     1    2
     9     2     3    1
    10     1    10    1
    11    25    24    1
    12    13    12    1
    13    10    11    1
    14    10    12    1
    15    10    22    1
    16    12    24    1
    17    12    14    1
    18    31    30    1
    19    24    26    1
    20    24    33    1
    21    23    22    1
    22    22    30    1
    23    22    19    1
    24    30    33    1
    25    30    32    1
    26    33    34    1
    27    33    27    1
    28    15    14    1
    29    14    16    1
    30    14    17    1
    31    21    19    1
    32    19    17    1
    33    19    20    1
    34    17    27    1
    35    17    18    1
    36    27    28    1
    37    27    29    1
