@<TRIPOS>MOLECULE
1,3,5,7,9
 10 10 0 0 0
SMALL
GASTEIGER

@<TRIPOS>ATOM
      1 C           1.5893   22.3448   19.4813 C.2     1  UNL1       -0.0763
      2 H           0.9936   21.4564   19.3769 H       1  UNL1        0.0578
      3 C           2.1208   22.8458   20.6839 C.3     1  UNL1        0.0054
      4 H           1.9755   22.4198   21.6654 H       1  UNL1        0.0394
      5 C           2.7024   24.0961   20.4125 C.2     1  UNL1       -0.0763
      6 H           3.0589   24.8008   21.1491 H       1  UNL1        0.0578
      7 C           2.5452   24.3622   19.0416 C.2     1  UNL1       -0.0654
      8 H           2.7598   25.3061   18.5598 H       1  UNL1        0.0615
      9 C           1.8565   23.2754   18.4645 C.2     1  UNL1       -0.0654
     10 H           1.4697   23.2322   17.4578 H       1  UNL1        0.0615
@<TRIPOS>BOND
     1    10     9    1
     2     9     7    1
     3     9     1    2
     4     8     7    1
     5     7     5    2
     6     2     1    1
     7     1     3    1
     8     5     3    1
     9     5     6    1
    10     3     4    1
