@<TRIPOS>MOLECULE
1,2,3,4,5
 10 10 0 0 0
SMALL
GASTEIGER

@<TRIPOS>ATOM
      1 C          11.3741    5.3032    2.2530 C.2     1  UNL1       -0.0763
      2 C          10.1010    4.7400    2.4022 C.2     1  UNL1       -0.0654
      3 C           9.7412    4.8107    3.7622 C.2     1  UNL1       -0.0654
      4 C          10.7872    5.4490    4.4545 C.2     1  UNL1       -0.0763
      5 C          11.8199    5.7286    3.5276 C.3     1  UNL1        0.0054
      6 H          11.8651    5.5040    1.3114 H       1  UNL1        0.0578
      7 H           9.4583    4.4225    1.5940 H       1  UNL1        0.0615
      8 H           8.7683    4.5749    4.1743 H       1  UNL1        0.0615
      9 H          10.7434    5.8018    5.4737 H       1  UNL1        0.0578
     10 H          12.6902    6.3452    3.7214 H       1  UNL1        0.0394
@<TRIPOS>BOND
     1     6     1    1
     2     7     2    1
     3     1     2    2
     4     1     5    1
     5     2     3    1
     6     5    10    1
     7     5     4    1
     8     3     8    1
     9     3     4    2
    10     4     9    1
