@<TRIPOS>MOLECULE
1,2,3,4,5
 10 10 0 0 0
SMALL
GASTEIGER

@<TRIPOS>ATOM
      1 C           0.9919   -0.0001    1.8519 C.2     1  UNL1       -0.0654
      2 C           2.3262   -0.3463    2.1486 C.2     1  UNL1       -0.0654
      3 C           3.1686    0.6592    1.6174 C.2     1  UNL1       -0.0763
      4 C           2.3447    1.6147    0.9579 C.3     1  UNL1        0.0054
      5 C           1.0075    1.1891    1.0859 C.2     1  UNL1       -0.0763
      6 H           0.1255   -0.6220    2.0372 H       1  UNL1        0.0615
      7 H           2.6539   -1.2775    2.5926 H       1  UNL1        0.0615
      8 H           4.2458    0.5973    1.5385 H       1  UNL1        0.0578
      9 H           2.6980    2.4063    0.3092 H       1  UNL1        0.0394
     10 H           0.1588    1.6104    0.5650 H       1  UNL1        0.0578
@<TRIPOS>BOND
     1     9     4    1
     2    10     5    1
     3     4     5    1
     4     4     3    1
     5     5     1    2
     6     8     3    1
     7     3     2    2
     8     1     6    1
     9     1     2    1
    10     2     7    1
