@<TRIPOS>MOLECULE
1,2,3,4,5
 10 10 0 0 0
SMALL
GASTEIGER

@<TRIPOS>ATOM
      1 C          -0.5323    2.6460    3.3684 C.2     1  UNL1       -0.0654
      2 C          -0.1258    2.6288    4.7136 C.2     1  UNL1       -0.0763
      3 C           0.9391    3.5502    4.8646 C.3     1  UNL1        0.0054
      4 C           1.1370    4.1905    3.6045 C.2     1  UNL1       -0.0763
      5 C           0.2354    3.6254    2.6865 C.2     1  UNL1       -0.0654
      6 H          -1.3893    2.1228    2.9654 H       1  UNL1        0.0615
      7 H          -0.6013    2.0774    5.5148 H       1  UNL1        0.0578
      8 H           1.3549    3.8823    5.8090 H       1  UNL1        0.0394
      9 H           1.7386    5.0733    3.4319 H       1  UNL1        0.0578
     10 H           0.0511    3.9937    1.6867 H       1  UNL1        0.0615
@<TRIPOS>BOND
     1    10     5    1
     2     5     1    1
     3     5     4    2
     4     6     1    1
     5     1     2    2
     6     9     4    1
     7     4     3    1
     8     2     3    1
     9     2     7    1
    10     3     8    1
