@<TRIPOS>MOLECULE
1,2,3,4,5
 10 10 0 0 0
SMALL
GASTEIGER

@<TRIPOS>ATOM
      1 C          15.7249    1.8243    5.1776 C.2     1  UNL1       -0.0763
      2 C          16.8038    0.9172    5.0985 C.3     1  UNL1        0.0054
      3 C          17.4746    1.1484    3.8763 C.2     1  UNL1       -0.0763
      4 C          16.7981    2.1773    3.1913 C.2     1  UNL1       -0.0654
      5 C          15.7196    2.6006    4.0009 C.2     1  UNL1       -0.0654
      6 H          15.0919    1.9850    6.0415 H       1  UNL1        0.0578
      7 H          17.1400    0.2672    5.8993 H       1  UNL1        0.0394
      8 H          18.4262    0.7232    3.5790 H       1  UNL1        0.0578
      9 H          17.1324    2.6566    2.2782 H       1  UNL1        0.0615
     10 H          15.0725    3.4463    3.8053 H       1  UNL1        0.0615
@<TRIPOS>BOND
     1     9     4    1
     2     4     3    2
     3     4     5    1
     4     8     3    1
     5    10     5    1
     6     3     2    1
     7     5     1    2
     8     2     1    1
     9     2     7    1
    10     1     6    1
