@<TRIPOS>MOLECULE
1,2,3,4,5
 10 10 0 0 0
SMALL
GASTEIGER

@<TRIPOS>ATOM
      1 C          14.6337   -2.1938    3.0448 C.3     1  UNL1        0.0054
      2 C          15.6700   -2.1649    4.0031 C.2     1  UNL1       -0.0763
      3 C          16.8487   -1.7497    3.3546 C.2     1  UNL1       -0.0654
      4 C          16.5438   -1.4806    2.0052 C.2     1  UNL1       -0.0654
      5 C          15.1718   -1.7698    1.8071 C.2     1  UNL1       -0.0763
      6 H          13.6416   -2.5913    3.2007 H       1  UNL1        0.0394
      7 H          15.5949   -2.5222    5.0225 H       1  UNL1        0.0578
      8 H          17.8405   -1.7597    3.7885 H       1  UNL1        0.0615
      9 H          17.2637   -1.2472    1.2276 H       1  UNL1        0.0615
     10 H          14.6680   -1.8402    0.8501 H       1  UNL1        0.0578
@<TRIPOS>BOND
     1    10     5    1
     2     9     4    1
     3     5     4    2
     4     5     1    1
     5     4     3    1
     6     1     6    1
     7     1     2    1
     8     3     8    1
     9     3     2    2
    10     2     7    1
