@<TRIPOS>MOLECULE
1,2,3,4,5
 10 10 0 0 0
SMALL
GASTEIGER

@<TRIPOS>ATOM
      1 C          12.4759    3.2785    0.5421 C.2     1  UNL1       -0.0763
      2 C          12.6919    4.4088    1.3578 C.3     1  UNL1        0.0054
      3 C          13.9331    4.2450    2.0041 C.2     1  UNL1       -0.0763
      4 C          14.4713    2.9997    1.6092 C.2     1  UNL1       -0.0654
      5 C          13.5676    2.4058    0.7027 C.2     1  UNL1       -0.0654
      6 H          11.6705    3.1572   -0.1721 H       1  UNL1        0.0578
      7 H          12.0908    5.3069    1.3656 H       1  UNL1        0.0394
      8 H          14.4467    5.0091    2.5749 H       1  UNL1        0.0578
      9 H          15.4744    2.6466    1.8175 H       1  UNL1        0.0615
     10 H          13.7514    1.5128    0.1208 H       1  UNL1        0.0615
@<TRIPOS>BOND
     1     6     1    1
     2    10     5    1
     3     1     5    2
     4     1     2    1
     5     5     4    1
     6     2     7    1
     7     2     3    1
     8     4     9    1
     9     4     3    2
    10     3     8    1
