@<TRIPOS>MOLECULE
1,2,3,4,5
 10 10 0 0 0
SMALL
GASTEIGER

@<TRIPOS>ATOM
      1 C          12.7851    1.5185    5.2905 C.2     1  UNL1       -0.0763
      2 C          12.3280    2.8406    5.4724 C.3     1  UNL1        0.0054
      3 C          13.3563    3.7149    5.0507 C.2     1  UNL1       -0.0763
      4 C          14.4495    2.9306    4.6366 C.2     1  UNL1       -0.0654
      5 C          14.0877    1.5740    4.7452 C.2     1  UNL1       -0.0654
      6 H          12.2914    0.6297    5.6550 H       1  UNL1        0.0578
      7 H          11.4165    3.1232    5.9800 H       1  UNL1        0.0394
      8 H          13.3670    4.7910    5.1813 H       1  UNL1        0.0578
      9 H          15.4342    3.3014    4.3840 H       1  UNL1        0.0615
     10 H          14.7559    0.7304    4.6246 H       1  UNL1        0.0615
@<TRIPOS>BOND
     1     9     4    1
     2    10     5    1
     3     4     5    1
     4     4     3    2
     5     5     1    2
     6     3     8    1
     7     3     2    1
     8     1     2    1
     9     1     6    1
    10     2     7    1
