@<TRIPOS>MOLECULE
5,6,7,8,9
 40 40 0 0 0
SMALL
GASTEIGER

@<TRIPOS>ATOM
      1 SI          0.8103    0.9188   12.6241 Si      1  UNL1        0.0000
      2 F           0.0135   -3.7232   10.2381 F       1  UNL1        0.0000
      3 F           1.5408   -3.6307   11.7442 F       1  UNL1        0.0000
      4 F           1.8859   -2.7558    9.8124 F       1  UNL1        0.0000
      5 C           0.8150    2.4170   11.4530 C.3     1  UNL1        0.0000
      6 C          -0.1250    3.5205   11.5256 C.2     1  UNL1        0.0000
      7 C           0.5465    4.7119   11.1873 C.2     1  UNL1        0.0000
      8 C           1.8705    4.3853   10.8130 C.2     1  UNL1        0.0000
      9 C           2.0391    2.9989   10.9489 C.2     1  UNL1        0.0000
     10 C          -1.4704    3.5132   12.1929 C.3     1  UNL1        0.0000
     11 H          -1.3493    3.6992   13.2626 H       1  UNL1        0.0000
     12 H          -1.9789    2.5612   12.0677 H       1  UNL1        0.0000
     13 H          -2.1058    4.3034   11.7937 H       1  UNL1        0.0000
     14 C           0.0127    6.0877   11.4401 C.3     1  UNL1        0.0000
     15 H           0.0284    6.2822   12.5150 H       1  UNL1        0.0000
     16 H          -1.0194    6.1950   11.1100 H       1  UNL1        0.0000
     17 H           0.6172    6.8512   10.9571 H       1  UNL1        0.0000
     18 C           2.9983    5.3295   10.5317 C.3     1  UNL1        0.0000
     19 H           2.6496    6.3457   10.3648 H       1  UNL1        0.0000
     20 H           3.5817    5.0074    9.6686 H       1  UNL1        0.0000
     21 H           3.6753    5.3480   11.3888 H       1  UNL1        0.0000
     22 C           3.3831    2.3430   10.8448 C.3     1  UNL1        0.0000
     23 H           3.8216    2.4915    9.8563 H       1  UNL1        0.0000
     24 H           3.3254    1.2769   11.0380 H       1  UNL1        0.0000
     25 H           4.0583    2.7912   11.5772 H       1  UNL1        0.0000
     26 C           1.4490   -0.7687   11.9411 C.3     1  UNL1        0.0000
     27 H           2.2725   -0.6345   11.2415 H       1  UNL1        0.0000
     28 H           1.8456   -1.3337   12.7859 H       1  UNL1        0.0000
     29 C           0.3783   -1.6096   11.2547 C.3     1  UNL1        0.0000
     30 H          -0.4388   -1.8460   11.9359 H       1  UNL1        0.0000
     31 H          -0.0281   -1.0901   10.3858 H       1  UNL1        0.0000
     32 C           0.9514   -2.9196   10.7622 C.3     1  UNL1        0.0000
     33 C          -0.8516    0.5323   13.4901 C.3     1  UNL1        0.0000
     34 H          -0.7231   -0.3486   14.1123 H       1  UNL1        0.0000
     35 H          -1.6540    0.3259   12.7904 H       1  UNL1        0.0000
     36 H          -1.1677    1.3396   14.1413 H       1  UNL1        0.0000
     37 C           2.0360    1.4101   14.0165 C.3     1  UNL1        0.0000
     38 H           1.8387    2.4131   14.3810 H       1  UNL1        0.0000
     39 H           3.0675    1.3808   13.6840 H       1  UNL1        0.0000
     40 H           1.9458    0.7318   14.8577 H       1  UNL1        0.0000
@<TRIPOS>BOND
     1    20    18    1
     2     4    32    1
     3    23    22    1
     4     2    32    1
     5    19    18    1
     6    31    29    1
     7    18     8    1
     8    18    21    1
     9    32    29    1
    10    32     3    1
    11     8     9    2
    12     8     7    1
    13    22     9    1
    14    22    24    1
    15    22    25    1
    16     9     5    1
    17    17    14    1
    18    16    14    1
    19     7    14    1
    20     7     6    2
    21    27    26    1
    22    29    30    1
    23    29    26    1
    24    14    15    1
    25     5     6    1
    26     5     1    1
    27     6    10    1
    28    13    10    1
    29    26     1    1
    30    26    28    1
    31    12    10    1
    32    10    11    1
    33     1    33    1
    34     1    37    1
    35    35    33    1
    36    33    34    1
    37    33    36    1
    38    39    37    1
    39    37    38    1
    40    37    40    1
