@<TRIPOS>MOLECULE
5,6,7,8,9
 40 40 0 0 0
SMALL
GASTEIGER

@<TRIPOS>ATOM
      1 SI          0.1434    0.6108    6.1243 Si      1  UNL1        0.0000
      2 F          -2.4735   -3.9492    6.2613 F       1  UNL1        0.0000
      3 F          -2.3187   -2.8814    8.1199 F       1  UNL1        0.0000
      4 F          -0.5986   -3.8948    7.3094 F       1  UNL1        0.0000
      5 C          -0.1489    2.1853    7.1304 C.3     1  UNL1        0.0000
      6 C           0.7786    3.2366    7.4265 C.3     1  UNL1        0.0000
      7 C           0.0756    4.2973    8.0595 C.3     1  UNL1        0.0000
      8 C          -1.2655    3.8641    8.2543 C.2     1  UNL1        0.0000
      9 C          -1.4074    2.5926    7.6344 C.2     1  UNL1        0.0000
     10 C           2.1970    3.3199    6.9478 C.3     1  UNL1        0.0000
     11 H           2.2202    3.5707    5.8852 H       1  UNL1        0.0000
     12 H           2.7094    2.3691    7.0830 H       1  UNL1        0.0000
     13 H           2.7443    4.0930    7.4867 H       1  UNL1        0.0000
     14 C           0.5437    5.7214    8.0993 C.3     1  UNL1        0.0000
     15 H           1.5850    5.8076    8.3952 H       1  UNL1        0.0000
     16 H          -0.0633    6.3285    8.7638 H       1  UNL1        0.0000
     17 H           0.4519    6.1383    7.0922 H       1  UNL1        0.0000
     18 C          -2.4247    4.6727    8.7561 C.3     1  UNL1        0.0000
     19 H          -2.0951    5.5839    9.2501 H       1  UNL1        0.0000
     20 H          -3.0307    4.0922    9.4546 H       1  UNL1        0.0000
     21 H          -3.0659    4.9578    7.9186 H       1  UNL1        0.0000
     22 C          -2.7285    1.9271    7.4069 C.3     1  UNL1        0.0000
     23 H          -3.2254    2.4015    6.5569 H       1  UNL1        0.0000
     24 H          -3.3791    2.0298    8.2749 H       1  UNL1        0.0000
     25 H          -2.6109    0.8690    7.1917 H       1  UNL1        0.0000
     26 C          -0.4474   -0.9576    7.0789 C.3     1  UNL1        0.0000
     27 H           0.4255   -1.5030    7.4388 H       1  UNL1        0.0000
     28 H          -1.0258   -0.6821    7.9629 H       1  UNL1        0.0000
     29 C          -1.2820   -1.8976    6.2174 C.3     1  UNL1        0.0000
     30 H          -2.2100   -1.4252    5.8928 H       1  UNL1        0.0000
     31 H          -0.7266   -2.2177    5.3354 H       1  UNL1        0.0000
     32 C          -1.6599   -3.1491    6.9836 C.3     1  UNL1        0.0000
     33 C          -0.8917    0.8428    4.5265 C.3     1  UNL1        0.0000
     34 H          -0.6001    1.7495    4.0057 H       1  UNL1        0.0000
     35 H          -1.9572    0.9089    4.7158 H       1  UNL1        0.0000
     36 H          -0.7294    0.0137    3.8467 H       1  UNL1        0.0000
     37 C           1.9276    0.2626    5.5401 C.3     1  UNL1        0.0000
     38 H           1.9286   -0.6345    4.9280 H       1  UNL1        0.0000
     39 H           2.6064    0.0886    6.3679 H       1  UNL1        0.0000
     40 H           2.3257    1.0675    4.9317 H       1  UNL1        0.0000
@<TRIPOS>BOND
     1    36    33    1
     2    34    33    1
     3    33    35    1
     4    33     1    1
     5    38    37    1
     6    40    37    1
     7    31    29    1
     8    37     1    1
     9    37    39    1
    10    11    10    1
    11    30    29    1
    12     1    26    1
    13     1     5    1
    14    29    32    1
    15    29    26    1
    16     2    32    1
    17    23    22    1
    18    10    12    1
    19    10     6    1
    20    10    13    1
    21    32     4    1
    22    32     3    1
    23    26    27    1
    24    26    28    1
    25    17    14    1
    26     5     6    1
    27     5     9    1
    28    25    22    1
    29    22     9    1
    30    22    24    1
    31     6     7    1
    32     9     8    2
    33    21    18    1
    34     7    14    1
    35     7     8    1
    36    14    15    1
    37    14    16    1
    38     8    18    1
    39    18    19    1
    40    18    20    1
