@<TRIPOS>MOLECULE
1,6,7,8,9
 22 22 0 0 0
SMALL
GASTEIGER

@<TRIPOS>ATOM
      1 C           4.3073    1.7347    0.6334 C.3     1  UNL1        0.0000
      2 SI          5.7920    2.2558    1.6717 Si      1  UNL1        0.0000
      3 C           5.7821    4.1628    1.8423 C.3     1  UNL1        0.0000
      4 C           7.3713    1.7571    0.7130 C.3     1  UNL1        0.0000
      5 C           5.7736    1.3771    3.3615 C.3     1  UNL1        0.0000
      6 C           3.3361    0.7458    0.9609 C.2     1  UNL1        0.0000
      7 C           2.4771    0.5743   -0.1420 C.2     1  UNL1        0.0000
      8 C           2.8912    1.4614   -1.1615 C.2     1  UNL1        0.0000
      9 C           4.0219    2.1629   -0.6914 C.2     1  UNL1        0.0000
     10 H           6.5630    4.4913    2.5210 H       1  UNL1        0.0000
     11 H           5.9633    4.6514    0.8882 H       1  UNL1        0.0000
     12 H           4.8322    4.5146    2.2396 H       1  UNL1        0.0000
     13 H           7.4205    2.2309   -0.2620 H       1  UNL1        0.0000
     14 H           8.2592    2.0478    1.2636 H       1  UNL1        0.0000
     15 H           7.4181    0.6845    0.5570 H       1  UNL1        0.0000
     16 H           6.6203    1.6874    3.9652 H       1  UNL1        0.0000
     17 H           4.8696    1.6125    3.9135 H       1  UNL1        0.0000
     18 H           5.8308    0.2986    3.2486 H       1  UNL1        0.0000
     19 H           3.3172    0.1630    1.8758 H       1  UNL1        0.0000
     20 H           1.6976   -0.1735   -0.2270 H       1  UNL1        0.0000
     21 H           2.5066    1.4812   -2.1732 H       1  UNL1        0.0000
     22 H           4.6542    2.8118   -1.2859 H       1  UNL1        0.0000
@<TRIPOS>BOND
     1    21     8    1
     2    22     9    1
     3     8     9    2
     4     8     7    1
     5     9     1    1
     6    13     4    1
     7    20     7    1
     8     7     6    2
     9    15     4    1
    10     1     6    1
    11     1     2    1
    12     4    14    1
    13     4     2    1
    14    11     3    1
    15     6    19    1
    16     2     3    1
    17     2     5    1
    18     3    12    1
    19     3    10    1
    20    18     5    1
    21     5    17    1
    22     5    16    1
