@<TRIPOS>MOLECULE
1,6,7,8,9
 22 22 0 0 0
SMALL
GASTEIGER

@<TRIPOS>ATOM
      1 C           0.8110    4.4604   -0.3853 C.3     1  UNL1        0.0000
      2 SI         -0.7933    3.8803   -1.1876 Si      1  UNL1        0.0000
      3 C          -0.5257    2.1142   -1.8768 C.3     1  UNL1        0.0000
      4 C          -1.1529    5.0432   -2.6643 C.3     1  UNL1        0.0000
      5 C          -2.2382    3.9667    0.0503 C.3     1  UNL1        0.0000
      6 C           0.9690    5.0121    0.9181 C.2     1  UNL1        0.0000
      7 C           2.3040    5.4344    1.0707 C.2     1  UNL1        0.0000
      8 C           2.9959    5.1393   -0.1260 C.2     1  UNL1        0.0000
      9 C           2.0774    4.5545   -1.0237 C.2     1  UNL1        0.0000
     10 H           0.1812    2.1097   -2.7028 H       1  UNL1        0.0000
     11 H          -1.4572    1.7036   -2.2533 H       1  UNL1        0.0000
     12 H          -0.1605    1.4436   -1.1016 H       1  UNL1        0.0000
     13 H          -1.2933    6.0677   -2.3365 H       1  UNL1        0.0000
     14 H          -2.0564    4.7367   -3.1798 H       1  UNL1        0.0000
     15 H          -0.3451    5.0404   -3.3889 H       1  UNL1        0.0000
     16 H          -3.1610    3.6319   -0.4123 H       1  UNL1        0.0000
     17 H          -2.3988    4.9813    0.4024 H       1  UNL1        0.0000
     18 H          -2.0515    3.3348    0.9123 H       1  UNL1        0.0000
     19 H           0.1714    5.1589    1.6387 H       1  UNL1        0.0000
     20 H           2.7032    5.9772    1.9193 H       1  UNL1        0.0000
     21 H           4.0049    5.4514   -0.3633 H       1  UNL1        0.0000
     22 H           2.2643    4.3442   -2.0702 H       1  UNL1        0.0000
@<TRIPOS>BOND
     1    15     4    1
     2    14     4    1
     3    10     3    1
     4     4    13    1
     5     4     2    1
     6    11     3    1
     7    22     9    1
     8     3     2    1
     9     3    12    1
    10     2     1    1
    11     2     5    1
    12     9     1    1
    13     9     8    2
    14    16     5    1
    15     1     6    1
    16    21     8    1
    17     8     7    1
    18     5    17    1
    19     5    18    1
    20     6     7    2
    21     6    19    1
    22     7    20    1
