@<TRIPOS>MOLECULE
1,6,7,12,13
 34 34 0 0 0
SMALL
GASTEIGER

@<TRIPOS>ATOM
      1 C          19.1759    7.3194    6.1851 C.2     1  UNL1        0.0000
      2 SI         21.0572    7.1639    6.1980 Si      1  UNL1        0.0000
      3 C          21.7950    6.6123    4.5264 C.3     1  UNL1        0.0000
      4 C          21.4402    5.8025    7.4856 C.3     1  UNL1        0.0000
      5 C          21.8249    8.8050    6.7992 C.3     1  UNL1        0.0000
      6 C          18.2743    6.2575    5.9598 C.2     1  UNL1        0.0000
      7 C          16.9458    6.6836    6.2141 C.2     1  UNL1        0.0000
      8 SI         15.5060    5.4805    6.3175 Si      1  UNL1        0.0000
      9 C          15.0916    4.8069    4.5712 C.3     1  UNL1        0.0000
     10 C          16.0505    4.0116    7.4075 C.3     1  UNL1        0.0000
     11 C          13.9820    6.3007    7.1269 C.3     1  UNL1        0.0000
     12 C          17.0394    8.0406    6.6435 C.2     1  UNL1        0.0000
     13 C          18.3902    8.4289    6.6161 C.3     1  UNL1        0.0000
     14 H          21.3728    5.6686    4.1923 H       1  UNL1        0.0000
     15 H          21.6391    7.3418    3.7374 H       1  UNL1        0.0000
     16 H          22.8667    6.4699    4.6267 H       1  UNL1        0.0000
     17 H          21.0235    6.0415    8.4586 H       1  UNL1        0.0000
     18 H          21.0399    4.8402    7.1841 H       1  UNL1        0.0000
     19 H          22.5116    5.6880    7.6057 H       1  UNL1        0.0000
     20 H          21.6505    9.6191    6.1040 H       1  UNL1        0.0000
     21 H          21.4335    9.0971    7.7690 H       1  UNL1        0.0000
     22 H          22.8985    8.6920    6.9048 H       1  UNL1        0.0000
     23 H          18.5628    5.2419    5.7163 H       1  UNL1        0.0000
     24 H          14.3368    5.4002    4.0633 H       1  UNL1        0.0000
     25 H          15.9763    4.7659    3.9364 H       1  UNL1        0.0000
     26 H          14.7035    3.7953    4.6412 H       1  UNL1        0.0000
     27 H          16.8468    3.4426    6.9383 H       1  UNL1        0.0000
     28 H          16.4128    4.3446    8.3751 H       1  UNL1        0.0000
     29 H          15.2219    3.3325    7.5817 H       1  UNL1        0.0000
     30 H          14.2070    6.6202    8.1397 H       1  UNL1        0.0000
     31 H          13.6127    7.1657    6.5850 H       1  UNL1        0.0000
     32 H          13.1670    5.5867    7.1859 H       1  UNL1        0.0000
     33 H          16.2223    8.6198    7.0511 H       1  UNL1        0.0000
     34 H          18.7991    9.3656    6.9761 H       1  UNL1        0.0000
@<TRIPOS>BOND
     1    15     3    1
     2    25     9    1
     3    24     9    1
     4    14     3    1
     5     3    16    1
     6     3     2    1
     7     9    26    1
     8     9     8    1
     9    23     6    1
    10     6     1    2
    11     6     7    1
    12    20     5    1
    13     1     2    1
    14     1    13    1
    15     2     5    1
    16     2     4    1
    17     7     8    1
    18     7    12    2
    19     8    11    1
    20     8    10    1
    21    31    11    1
    22    13    12    1
    23    13    34    1
    24    12    33    1
    25     5    22    1
    26     5    21    1
    27    27    10    1
    28    11    32    1
    29    11    30    1
    30    18     4    1
    31    10    29    1
    32    10    28    1
    33     4    19    1
    34     4    17    1
