@<TRIPOS>MOLECULE
1,6,7,8,9
 22 22 0 0 0
SMALL
GASTEIGER

@<TRIPOS>ATOM
      1 C           2.0729   -2.0115    3.6316 C.3     1  UNL1        0.0000
      2 SI          2.2179   -3.6108    2.6396 Si      1  UNL1        0.0000
      3 C           2.4705   -3.1937    0.7857 C.3     1  UNL1        0.0000
      4 C           3.7973   -4.4973    3.2498 C.3     1  UNL1        0.0000
      5 C           0.7119   -4.7381    2.9294 C.3     1  UNL1        0.0000
      6 C           1.0677   -1.6691    4.5826 C.2     1  UNL1        0.0000
      7 C           1.4555   -0.4897    5.2452 C.2     1  UNL1        0.0000
      8 C           2.6945   -0.0721    4.7083 C.2     1  UNL1        0.0000
      9 C           3.0808   -1.0146    3.7337 C.2     1  UNL1        0.0000
     10 H           1.7133   -2.5147    0.3998 H       1  UNL1        0.0000
     11 H           3.4497   -2.7561    0.6063 H       1  UNL1        0.0000
     12 H           2.4173   -4.1002    0.1911 H       1  UNL1        0.0000
     13 H           4.6859   -3.8883    3.1179 H       1  UNL1        0.0000
     14 H           3.7274   -4.7491    4.3027 H       1  UNL1        0.0000
     15 H           3.9486   -5.4200    2.7006 H       1  UNL1        0.0000
     16 H           0.5819   -4.9573    3.9850 H       1  UNL1        0.0000
     17 H          -0.2087   -4.2977    2.5617 H       1  UNL1        0.0000
     18 H           0.8501   -5.6843    2.4163 H       1  UNL1        0.0000
     19 H           0.1910   -2.2662    4.8146 H       1  UNL1        0.0000
     20 H           0.9388   -0.0329    6.0813 H       1  UNL1        0.0000
     21 H           3.3047    0.7369    5.0894 H       1  UNL1        0.0000
     22 H           4.0456   -1.0550    3.2422 H       1  UNL1        0.0000
@<TRIPOS>BOND
     1    12     3    1
     2    10     3    1
     3    11     3    1
     4     3     2    1
     5    18     5    1
     6    17     5    1
     7     2     5    1
     8     2     4    1
     9     2     1    1
    10    15     4    1
    11     5    16    1
    12    13     4    1
    13    22     9    1
    14     4    14    1
    15     1     9    1
    16     1     6    1
    17     9     8    2
    18     6    19    1
    19     6     7    2
    20     8    21    1
    21     8     7    1
    22     7    20    1
