@<TRIPOS>MOLECULE
1,6,7,8,9
 22 22 0 0 0
SMALL
GASTEIGER

@<TRIPOS>ATOM
      1 C           1.6874    2.1776    1.9464 C.3     1  UNL1        0.0000
      2 SI          1.5232    3.7803    2.9296 Si      1  UNL1        0.0000
      3 C           1.8454    3.4240    4.7853 C.3     1  UNL1        0.0000
      4 C           2.9085    4.9448    2.3152 C.3     1  UNL1        0.0000
      5 C          -0.1670    4.6036    2.6314 C.3     1  UNL1        0.0000
      6 C           0.7752    1.6509    0.9861 C.2     1  UNL1        0.0000
      7 C           1.3847    0.5633    0.3329 C.2     1  UNL1        0.0000
      8 C           2.6738    0.3866    0.8851 C.2     1  UNL1        0.0000
      9 C           2.8652    1.3867    1.8600 C.2     1  UNL1        0.0000
     10 H           1.2246    2.6194    5.1733 H       1  UNL1        0.0000
     11 H           2.8879    3.1735    4.9667 H       1  UNL1        0.0000
     12 H           1.6266    4.3078    5.3764 H       1  UNL1        0.0000
     13 H           3.8955    4.5142    2.4500 H       1  UNL1        0.0000
     14 H           2.7933    5.1735    1.2609 H       1  UNL1        0.0000
     15 H           2.8834    5.8825    2.8593 H       1  UNL1        0.0000
     16 H          -0.3364    4.7822    1.5737 H       1  UNL1        0.0000
     17 H          -0.9892    4.0037    3.0067 H       1  UNL1        0.0000
     18 H          -0.2071    5.5650    3.1330 H       1  UNL1        0.0000
     19 H          -0.1951    2.0725    0.7419 H       1  UNL1        0.0000
     20 H           0.9726    0.0164   -0.5072 H       1  UNL1        0.0000
     21 H           3.4295   -0.2942    0.5144 H       1  UNL1        0.0000
     22 H           3.7994    1.6078    2.3626 H       1  UNL1        0.0000
@<TRIPOS>BOND
     1    20     7    1
     2     7     8    1
     3     7     6    2
     4    21     8    1
     5    19     6    1
     6     8     9    2
     7     6     1    1
     8    14     4    1
     9    16     5    1
    10     9     1    1
    11     9    22    1
    12     1     2    1
    13     4    13    1
    14     4    15    1
    15     4     2    1
    16     5     2    1
    17     5    17    1
    18     5    18    1
    19     2     3    1
    20     3    11    1
    21     3    10    1
    22     3    12    1
