@<TRIPOS>MOLECULE
1,6,7,12,13
 34 34 0 0 0
SMALL
GASTEIGER

@<TRIPOS>ATOM
      1 C          16.6330    8.7018    2.1845 C.2     1  UNL1        0.0000
      2 SI         17.3296    8.5696    0.4349 Si      1  UNL1        0.0000
      3 C          19.2204    8.8091    0.3327 C.3     1  UNL1        0.0000
      4 C          16.5070    9.9934   -0.5421 C.3     1  UNL1        0.0000
      5 C          16.7912    6.9073   -0.3341 C.3     1  UNL1        0.0000
      6 C          16.6755    9.8587    2.9918 C.2     1  UNL1        0.0000
      7 C          15.8917    9.6682    4.1582 C.2     1  UNL1        0.0000
      8 SI         15.4588   11.0827    5.3172 Si      1  UNL1        0.0000
      9 C          17.0265   11.6387    6.2702 C.3     1  UNL1        0.0000
     10 C          14.8548   12.5453    4.2502 C.3     1  UNL1        0.0000
     11 C          14.0523   10.5944    6.5147 C.3     1  UNL1        0.0000
     12 C          15.3219    8.3656    4.0455 C.2     1  UNL1        0.0000
     13 C          15.7792    7.7761    2.8540 C.3     1  UNL1        0.0000
     14 H          19.5273    9.7673    0.7425 H       1  UNL1        0.0000
     15 H          19.7712    8.0338    0.8567 H       1  UNL1        0.0000
     16 H          19.5378    8.7843   -0.7054 H       1  UNL1        0.0000
     17 H          15.4242    9.9312   -0.5080 H       1  UNL1        0.0000
     18 H          16.7927   10.9649   -0.1529 H       1  UNL1        0.0000
     19 H          16.8059    9.9577   -1.5837 H       1  UNL1        0.0000
     20 H          17.2371    6.0579    0.1719 H       1  UNL1        0.0000
     21 H          15.7121    6.7876   -0.3117 H       1  UNL1        0.0000
     22 H          17.0995    6.8654   -1.3732 H       1  UNL1        0.0000
     23 H          17.1611   10.7875    2.7170 H       1  UNL1        0.0000
     24 H          17.1329   11.1349    7.2267 H       1  UNL1        0.0000
     25 H          17.9325   11.4633    5.6907 H       1  UNL1        0.0000
     26 H          16.9833   12.7036    6.4776 H       1  UNL1        0.0000
     27 H          15.6455   12.9243    3.6107 H       1  UNL1        0.0000
     28 H          14.0268   12.2570    3.6103 H       1  UNL1        0.0000
     29 H          14.5177   13.3660    4.8754 H       1  UNL1        0.0000
     30 H          13.1657   10.2881    5.9683 H       1  UNL1        0.0000
     31 H          14.3158    9.7882    7.1918 H       1  UNL1        0.0000
     32 H          13.7772   11.4483    7.1251 H       1  UNL1        0.0000
     33 H          14.5606    7.9626    4.6995 H       1  UNL1        0.0000
     34 H          15.4529    6.8314    2.4356 H       1  UNL1        0.0000
@<TRIPOS>BOND
     1    19     4    1
     2    22     5    1
     3    16     3    1
     4     4    17    1
     5     4    18    1
     6     4     2    1
     7     5    21    1
     8     5    20    1
     9     5     2    1
    10     3     2    1
    11     3    14    1
    12     3    15    1
    13     2     1    1
    14     1    13    1
    15     1     6    2
    16    34    13    1
    17    23     6    1
    18    13    12    1
    19     6     7    1
    20    28    10    1
    21    27    10    1
    22    12     7    2
    23    12    33    1
    24     7     8    1
    25    10    29    1
    26    10     8    1
    27     8     9    1
    28     8    11    1
    29    25     9    1
    30    30    11    1
    31     9    26    1
    32     9    24    1
    33    11    32    1
    34    11    31    1
