@<TRIPOS>MOLECULE
1,2,3,5,6
 25 25 0 0 0
SMALL
GASTEIGER

@<TRIPOS>ATOM
      1 C          14.6064   14.6183    7.9610 C.2     1  UNL1       -0.0477
      2 C          15.4718   13.7845    7.2053 C.2     1  UNL1       -0.0584
      3 C          14.6649   12.8728    6.4490 C.3     1  UNL1        0.0231
      4 C          15.1914   12.0376    5.3128 C.3     1  UNL1       -0.0510
      5 C          13.2859   13.1776    6.7348 C.2     1  UNL1       -0.0584
      6 C          13.2585   14.2252    7.6892 C.2     1  UNL1       -0.0477
      7 C          12.0329   14.9827    8.1166 C.3     1  UNL1       -0.0395
      8 C          12.0969   12.6705    5.9729 C.3     1  UNL1       -0.0424
      9 C          16.9566   13.9431    7.0552 C.3     1  UNL1       -0.0424
     10 C          15.0381   15.8625    8.6790 C.3     1  UNL1       -0.0395
     11 H          14.4196   11.3880    4.9061 H       1  UNL1        0.0242
     12 H          15.5452   12.6866    4.5088 H       1  UNL1        0.0242
     13 H          16.0250   11.4165    5.6415 H       1  UNL1        0.0242
     14 H          11.1453   14.3523    8.0815 H       1  UNL1        0.0278
     15 H          11.8659   15.8294    7.4467 H       1  UNL1        0.0278
     16 H          12.1319   15.3775    9.1281 H       1  UNL1        0.0278
     17 H          11.2064   12.6355    6.5988 H       1  UNL1        0.0275
     18 H          11.8919   13.3374    5.1321 H       1  UNL1        0.0275
     19 H          12.2707   11.6723    5.5775 H       1  UNL1        0.0275
     20 H          17.4406   12.9720    6.9605 H       1  UNL1        0.0275
     21 H          17.1835   14.5260    6.1598 H       1  UNL1        0.0275
     22 H          17.3841   14.4560    7.9139 H       1  UNL1        0.0275
     23 H          14.2508   16.2549    9.3186 H       1  UNL1        0.0278
     24 H          15.9233   15.6870    9.2881 H       1  UNL1        0.0278
     25 H          15.2846   16.6321    7.9442 H       1  UNL1        0.0278
@<TRIPOS>BOND
     1    12     4    1
     2    11     4    1
     3    18     8    1
     4     4    13    1
     5     4     3    1
     6    19     8    1
     7     8    17    1
     8     8     5    1
     9    21     9    1
    10     3     5    1
    11     3     2    1
    12     5     6    2
    13    20     9    1
    14     9     2    1
    15     9    22    1
    16     2     1    2
    17    15     7    1
    18     6     1    1
    19     6     7    1
    20    25    10    1
    21     1    10    1
    22    14     7    1
    23     7    16    1
    24    10    24    1
    25    10    23    1
