@<TRIPOS>MOLECULE
1,2,3,4,5
 25 25 0 0 0
SMALL
GASTEIGER

@<TRIPOS>ATOM
      1 C           7.0860    1.5329    4.0445 C.2     1  UNL1       -0.0658
      2 C           7.3104    1.9842    2.7119 C.3     1  UNL1        0.0052
      3 C           7.6057    3.3940    2.7685 C.3     1  UNL1       -0.0053
      4 C           7.5614    3.8073    4.1317 C.3     1  UNL1        0.0052
      5 C           7.2054    2.6636    4.9144 C.2     1  UNL1       -0.0658
      6 C           7.0887    0.1123    4.5291 C.3     1  UNL1       -0.0430
      7 H           8.0473   -0.0959    5.0116 H       1  UNL1        0.0275
      8 H           6.9698   -0.5914    3.7079 H       1  UNL1        0.0275
      9 H           6.3029   -0.0712    5.2612 H       1  UNL1        0.0275
     10 C           7.5835    1.1229    1.5132 C.3     1  UNL1       -0.0545
     11 H           8.6637    1.0455    1.3641 H       1  UNL1        0.0239
     12 H           7.1508    1.5482    0.6085 H       1  UNL1        0.0239
     13 H           7.1882    0.1173    1.6418 H       1  UNL1        0.0239
     14 C           8.1911    4.2082    1.6557 C.3     1  UNL1       -0.0574
     15 H           9.2794    4.2221    1.7552 H       1  UNL1        0.0236
     16 H           7.8307    5.2349    1.6935 H       1  UNL1        0.0236
     17 H           7.9398    3.7905    0.6831 H       1  UNL1        0.0236
     18 C           8.1219    5.0927    4.6597 C.3     1  UNL1       -0.0545
     19 H           9.2126    5.0218    4.6874 H       1  UNL1        0.0239
     20 H           7.7701    5.2955    5.6690 H       1  UNL1        0.0239
     21 H           7.8508    5.9322    4.0234 H       1  UNL1        0.0239
     22 C           7.2981    2.5818    6.4093 C.3     1  UNL1       -0.0430
     23 H           8.3395    2.4116    6.6948 H       1  UNL1        0.0275
     24 H           6.7000    1.7612    6.8014 H       1  UNL1        0.0275
     25 H           6.9632    3.5044    6.8798 H       1  UNL1        0.0275
@<TRIPOS>BOND
     1    12    10    1
     2    17    14    1
     3    11    10    1
     4    10    13    1
     5    10     2    1
     6    14    16    1
     7    14    15    1
     8    14     3    1
     9     2     3    1
    10     2     1    1
    11     3     4    1
    12     8     6    1
    13    21    18    1
    14     1     6    1
    15     1     5    2
    16     4    18    1
    17     4     5    1
    18     6     7    1
    19     6     9    1
    20    18    19    1
    21    18    20    1
    22     5    22    1
    23    22    23    1
    24    22    24    1
    25    22    25    1
