@<TRIPOS>MOLECULE
1,2,3,4,5
 25 25 0 0 0
SMALL
GASTEIGER

@<TRIPOS>ATOM
      1 C          -2.2481    4.3672   10.8956 C.2     1  UNL1       -0.0658
      2 C          -2.1606    4.4568   12.3038 C.2     1  UNL1       -0.0658
      3 C          -1.0893    5.3723   12.6308 C.3     1  UNL1        0.0052
      4 C          -0.5324    5.8605   11.4241 C.3     1  UNL1       -0.0053
      5 C          -1.2112    5.2032   10.3424 C.3     1  UNL1        0.0052
      6 C          -3.3552    3.7644   10.0858 C.3     1  UNL1       -0.0430
      7 H          -4.0094    4.5609    9.7249 H       1  UNL1        0.0275
      8 H          -3.9542    3.0765   10.6777 H       1  UNL1        0.0275
      9 H          -2.9700    3.2294    9.2189 H       1  UNL1        0.0275
     10 C          -3.1356    3.9474   13.3160 C.3     1  UNL1       -0.0430
     11 H          -3.6800    4.7896   13.7474 H       1  UNL1        0.0275
     12 H          -2.6166    3.4364   14.1278 H       1  UNL1        0.0275
     13 H          -3.8544    3.2612   12.8741 H       1  UNL1        0.0275
     14 C          -0.8251    5.9033   14.0012 C.3     1  UNL1       -0.0545
     15 H          -1.5576    6.6794   14.2348 H       1  UNL1        0.0239
     16 H           0.1717    6.3330   14.0708 H       1  UNL1        0.0239
     17 H          -0.9103    5.1164   14.7491 H       1  UNL1        0.0239
     18 C           0.3911    7.0271   11.2701 C.3     1  UNL1       -0.0574
     19 H          -0.2008    7.9332   11.1217 H       1  UNL1        0.0236
     20 H           1.0466    6.9016   10.4114 H       1  UNL1        0.0236
     21 H           1.0100    7.1614   12.1535 H       1  UNL1        0.0236
     22 C          -1.1003    5.6115    8.9069 C.3     1  UNL1       -0.0545
     23 H          -1.6884    6.5181    8.7479 H       1  UNL1        0.0239
     24 H          -1.4756    4.8363    8.2429 H       1  UNL1        0.0239
     25 H          -0.0664    5.8245    8.6431 H       1  UNL1        0.0239
@<TRIPOS>BOND
     1    24    22    1
     2    25    22    1
     3    23    22    1
     4    22     5    1
     5     9     6    1
     6     7     6    1
     7     6     8    1
     8     6     1    1
     9     5     1    1
    10     5     4    1
    11    20    18    1
    12     1     2    2
    13    19    18    1
    14    18     4    1
    15    18    21    1
    16     4     3    1
    17     2     3    1
    18     2    10    1
    19     3    14    1
    20    13    10    1
    21    10    11    1
    22    10    12    1
    23    14    16    1
    24    14    15    1
    25    14    17    1
