@<TRIPOS>MOLECULE
1,2,3,4,5
 25 25 0 0 0
SMALL
GASTEIGER

@<TRIPOS>ATOM
      1 C           4.1221   -0.6600    6.2313 C.3     1  UNL1        0.0231
      2 C           3.0580    0.2042    6.6182 C.2     1  UNL1       -0.0584
      3 C           1.8455   -0.3393    6.0922 C.2     1  UNL1       -0.0477
      4 C           2.1489   -1.5788    5.4365 C.2     1  UNL1       -0.0477
      5 C           3.5591   -1.7740    5.5094 C.2     1  UNL1       -0.0584
      6 C           5.5144   -0.5863    6.7802 C.3     1  UNL1       -0.0510
      7 C           3.1477    1.2803    7.6552 C.3     1  UNL1       -0.0424
      8 C           0.4784    0.1425    6.4730 C.3     1  UNL1       -0.0395
      9 C           1.1393   -2.6426    5.1205 C.3     1  UNL1       -0.0395
     10 C           4.2734   -3.0738    5.2846 C.3     1  UNL1       -0.0424
     11 H           5.5147   -0.9503    7.8104 H       1  UNL1        0.0242
     12 H           5.8805    0.4391    6.7793 H       1  UNL1        0.0242
     13 H           6.2043   -1.1953    6.1999 H       1  UNL1        0.0242
     14 H           3.0041    0.8326    8.6424 H       1  UNL1        0.0275
     15 H           2.3840    2.0405    7.5103 H       1  UNL1        0.0275
     16 H           4.1204    1.7663    7.6385 H       1  UNL1        0.0275
     17 H           0.2349   -0.2242    7.4731 H       1  UNL1        0.0278
     18 H          -0.2831   -0.2165    5.7831 H       1  UNL1        0.0278
     19 H           0.4404    1.2304    6.4901 H       1  UNL1        0.0278
     20 H           0.9587   -3.2340    6.0225 H       1  UNL1        0.0278
     21 H           1.4874   -3.3217    4.3438 H       1  UNL1        0.0278
     22 H           0.1895   -2.2172    4.8043 H       1  UNL1        0.0278
     23 H           4.2891   -3.6343    6.2233 H       1  UNL1        0.0275
     24 H           5.3037   -2.9175    4.9713 H       1  UNL1        0.0275
     25 H           3.7762   -3.6869    4.5364 H       1  UNL1        0.0275
@<TRIPOS>BOND
     1    21     9    1
     2    25    10    1
     3    22     9    1
     4    24    10    1
     5     9     4    1
     6     9    20    1
     7    10     5    1
     8    10    23    1
     9     4     5    2
    10     4     3    1
    11     5     1    1
    12    18     8    1
    13     3     8    1
    14     3     2    2
    15    13     6    1
    16     1     2    1
    17     1     6    1
    18     8    19    1
    19     8    17    1
    20     2     7    1
    21    12     6    1
    22     6    11    1
    23    15     7    1
    24    16     7    1
    25     7    14    1
