@<TRIPOS>MOLECULE
1,2,3,4,5
 25 25 0 0 0
SMALL
GASTEIGER

@<TRIPOS>ATOM
      1 C           7.1582    5.7320    0.3185 C.2     1  UNL1       -0.0584
      2 C           7.1467    7.0828    0.7725 C.3     1  UNL1        0.0231
      3 C           7.0263    7.0753    2.2089 C.2     1  UNL1       -0.0584
      4 C           6.9538    5.7165    2.6343 C.2     1  UNL1       -0.0477
      5 C           7.0056    4.8893    1.4639 C.2     1  UNL1       -0.0477
      6 C           7.5698    5.2690   -1.0449 C.3     1  UNL1       -0.0424
      7 H           8.6511    5.1092   -1.0566 H       1  UNL1        0.0275
      8 H           7.3229    6.0084   -1.8029 H       1  UNL1        0.0275
      9 H           7.0830    4.3332   -1.3112 H       1  UNL1        0.0275
     10 C           7.5250    8.2655   -0.0653 C.3     1  UNL1       -0.0510
     11 H           8.6065    8.2647   -0.2215 H       1  UNL1        0.0242
     12 H           7.2477    9.1993    0.4188 H       1  UNL1        0.0242
     13 H           7.0384    8.2271   -1.0384 H       1  UNL1        0.0242
     14 C           7.3188    8.2611    3.0805 C.3     1  UNL1       -0.0424
     15 H           8.3937    8.4588    3.0670 H       1  UNL1        0.0275
     16 H           7.0213    8.0854    4.1119 H       1  UNL1        0.0275
     17 H           6.8097    9.1549    2.7228 H       1  UNL1        0.0275
     18 C           7.1583    5.2121    4.0320 C.3     1  UNL1       -0.0395
     19 H           8.2207    5.0022    4.1820 H       1  UNL1        0.0278
     20 H           6.6066    4.2918    4.2131 H       1  UNL1        0.0278
     21 H           6.8554    5.9467    4.7756 H       1  UNL1        0.0278
     22 C           7.2114    3.4048    1.4498 C.3     1  UNL1       -0.0395
     23 H           8.2831    3.1930    1.4224 H       1  UNL1        0.0278
     24 H           6.7525    2.9554    0.5710 H       1  UNL1        0.0278
     25 H           6.7927    2.9329    2.3364 H       1  UNL1        0.0278
@<TRIPOS>BOND
     1     8     6    1
     2     9     6    1
     3     7     6    1
     4     6     1    1
     5    13    10    1
     6    11    10    1
     7    10    12    1
     8    10     2    1
     9     1     2    1
    10     1     5    2
    11    24    22    1
    12     2     3    1
    13    23    22    1
    14    22     5    1
    15    22    25    1
    16     5     4    1
    17     3     4    2
    18     3    14    1
    19     4    18    1
    20    17    14    1
    21    15    14    1
    22    14    16    1
    23    18    19    1
    24    18    20    1
    25    18    21    1
