@<TRIPOS>MOLECULE
1,2,3,4,5
 25 25 0 0 0
SMALL
GASTEIGER

@<TRIPOS>ATOM
      1 C           7.6959    8.2192    4.1829 C.3     1  UNL1        0.0231
      2 C           7.3589    7.8198    2.8385 C.2     1  UNL1       -0.0584
      3 C           6.0789    7.2183    2.8876 C.2     1  UNL1       -0.0477
      4 C           5.5894    7.3057    4.2475 C.2     1  UNL1       -0.0477
      5 C           6.5729    7.9357    5.0364 C.2     1  UNL1       -0.0584
      6 C           8.8195    9.1475    4.5256 C.3     1  UNL1       -0.0510
      7 C           8.1248    8.2258    1.6191 C.3     1  UNL1       -0.0424
      8 C           5.2159    6.8316    1.7321 C.3     1  UNL1       -0.0395
      9 C           4.1713    7.0186    4.6157 C.3     1  UNL1       -0.0395
     10 C           6.4023    8.4949    6.4153 C.3     1  UNL1       -0.0424
     11 H           8.5084   10.1719    4.3086 H       1  UNL1        0.0242
     12 H           9.7043    8.9278    3.9322 H       1  UNL1        0.0242
     13 H           9.0815    9.0884    5.5799 H       1  UNL1        0.0242
     14 H           7.9207    9.2763    1.4007 H       1  UNL1        0.0275
     15 H           7.8375    7.6308    0.7561 H       1  UNL1        0.0275
     16 H           9.1963    8.1090    1.7678 H       1  UNL1        0.0275
     17 H           4.4183    7.5681    1.6139 H       1  UNL1        0.0278
     18 H           4.7534    5.8592    1.9029 H       1  UNL1        0.0278
     19 H           5.7863    6.7811    0.8088 H       1  UNL1        0.0278
     20 H           3.5175    7.7066    4.0760 H       1  UNL1        0.0278
     21 H           3.9976    7.1406    5.6821 H       1  UNL1        0.0278
     22 H           3.8942    6.0042    4.3249 H       1  UNL1        0.0278
     23 H           6.1281    9.5498    6.3374 H       1  UNL1        0.0275
     24 H           7.3260    8.4327    6.9880 H       1  UNL1        0.0275
     25 H           5.6143    7.9804    6.9602 H       1  UNL1        0.0275
@<TRIPOS>BOND
     1    15     7    1
     2    19     8    1
     3    14     7    1
     4    17     8    1
     5     7    16    1
     6     7     2    1
     7     8    18    1
     8     8     3    1
     9     2     3    2
    10     2     1    1
    11     3     4    1
    12    12     6    1
    13    20     9    1
    14     1     6    1
    15     1     5    1
    16     4     9    1
    17     4     5    2
    18    11     6    1
    19    22     9    1
    20     6    13    1
    21     9    21    1
    22     5    10    1
    23    23    10    1
    24    10    25    1
    25    10    24    1
