@<TRIPOS>MOLECULE
1,2,3,4,5
 25 25 0 0 0
SMALL
GASTEIGER

@<TRIPOS>ATOM
      1 C           8.1147    6.6370    1.7910 C.2     1  UNL1       -0.0658
      2 C           7.1384    6.2240    0.8094 C.3     1  UNL1        0.0052
      3 C           7.7393    5.2512   -0.0275 C.3     1  UNL1       -0.0053
      4 C           9.0789    5.0343    0.4516 C.3     1  UNL1        0.0052
      5 C           9.3203    5.9309    1.5488 C.2     1  UNL1       -0.0658
      6 C           7.9353    7.7947    2.7175 C.3     1  UNL1       -0.0430
      7 C           5.8374    6.9327    0.6047 C.3     1  UNL1       -0.0545
      8 C           7.2146    4.7011   -1.3177 C.3     1  UNL1       -0.0574
      9 C          10.1424    4.2701   -0.2719 C.3     1  UNL1       -0.0545
     10 C          10.6669    6.2287    2.1279 C.3     1  UNL1       -0.0430
     11 H           8.0942    8.7259    2.1688 H       1  UNL1        0.0275
     12 H           8.6426    7.7521    3.5427 H       1  UNL1        0.0275
     13 H           6.9282    7.8091    3.1318 H       1  UNL1        0.0275
     14 H           6.0280    7.9893    0.4094 H       1  UNL1        0.0239
     15 H           5.2157    6.8666    1.4990 H       1  UNL1        0.0239
     16 H           5.2846    6.5218   -0.2373 H       1  UNL1        0.0239
     17 H           7.7296    5.1829   -2.1514 H       1  UNL1        0.0236
     18 H           6.1479    4.8846   -1.4246 H       1  UNL1        0.0236
     19 H           7.3858    3.6273   -1.3887 H       1  UNL1        0.0236
     20 H          10.6570    4.9397   -0.9645 H       1  UNL1        0.0239
     21 H           9.7174    3.4451   -0.8397 H       1  UNL1        0.0239
     22 H          10.8752    3.8704    0.4260 H       1  UNL1        0.0239
     23 H          11.1993    6.9111    1.4615 H       1  UNL1        0.0275
     24 H          11.2597    5.3230    2.2349 H       1  UNL1        0.0275
     25 H          10.5822    6.6971    3.1051 H       1  UNL1        0.0275
@<TRIPOS>BOND
     1    17     8    1
     2    18     8    1
     3    19     8    1
     4     8     3    1
     5    20     9    1
     6    21     9    1
     7     9    22    1
     8     9     4    1
     9    16     7    1
    10     3     4    1
    11     3     2    1
    12    14     7    1
    13     4     5    1
    14     7     2    1
    15     7    15    1
    16     2     1    1
    17    23    10    1
    18     5     1    2
    19     5    10    1
    20     1     6    1
    21    10    24    1
    22    10    25    1
    23    11     6    1
    24     6    13    1
    25     6    12    1
