@<TRIPOS>MOLECULE
1,2,3,4,5
 25 25 0 0 0
SMALL
GASTEIGER

@<TRIPOS>ATOM
      1 C           6.0297    6.2389   -0.0358 C.2     1  UNL1       -0.0658
      2 C           6.0345    7.1820   -1.0994 C.2     1  UNL1       -0.0658
      3 C           6.3903    8.4703   -0.5672 C.3     1  UNL1        0.0052
      4 C           6.5586    8.3232    0.8394 C.3     1  UNL1       -0.0053
      5 C           6.3046    6.9404    1.1717 C.3     1  UNL1        0.0052
      6 C           6.0626    4.7495   -0.2085 C.3     1  UNL1       -0.0430
      7 C           6.0529    6.8448   -2.5612 C.3     1  UNL1       -0.0430
      8 C           6.8416    9.6380   -1.3932 C.3     1  UNL1       -0.0545
      9 C           7.2111    9.3257    1.7452 C.3     1  UNL1       -0.0574
     10 C           6.6711    6.2985    2.4778 C.3     1  UNL1       -0.0545
     11 H           7.0860    4.4460   -0.4471 H       1  UNL1        0.0275
     12 H           5.7683    4.2270    0.7003 H       1  UNL1        0.0275
     13 H           5.4200    4.4186   -1.0222 H       1  UNL1        0.0275
     14 H           7.0899    6.7250   -2.8866 H       1  UNL1        0.0275
     15 H           5.5262    5.9148   -2.7689 H       1  UNL1        0.0275
     16 H           5.6021    7.6363   -3.1580 H       1  UNL1        0.0275
     17 H           7.8761    9.4805   -1.7116 H       1  UNL1        0.0239
     18 H           6.2264    9.7558   -2.2837 H       1  UNL1        0.0239
     19 H           6.7935   10.5644   -0.8248 H       1  UNL1        0.0239
     20 H           8.2980    9.2310    1.6708 H       1  UNL1        0.0236
     21 H           6.9354   10.3422    1.4700 H       1  UNL1        0.0236
     22 H           6.9255    9.1677    2.7837 H       1  UNL1        0.0236
     23 H           7.7372    6.0545    2.4742 H       1  UNL1        0.0239
     24 H           6.4809    6.9659    3.3165 H       1  UNL1        0.0239
     25 H           6.1144    5.3779    2.6437 H       1  UNL1        0.0239
@<TRIPOS>BOND
     1    16     7    1
     2    14     7    1
     3    15     7    1
     4     7     2    1
     5    18     8    1
     6    17     8    1
     7     8    19    1
     8     8     3    1
     9     2     3    1
    10     2     1    2
    11    13     6    1
    12     3     4    1
    13    11     6    1
    14     6     1    1
    15     6    12    1
    16     1     5    1
    17     4     5    1
    18     4     9    1
    19     5    10    1
    20    21     9    1
    21    20     9    1
    22     9    22    1
    23    23    10    1
    24    10    25    1
    25    10    24    1
