@<TRIPOS>MOLECULE
1,2,3,4,5
 10 10 0 0 0
SMALL
GASTEIGER

@<TRIPOS>ATOM
      1 C           0.2933    0.2341    3.4575 C.2     1  UNL1       -0.0654
      2 C           1.6293    0.6638    3.6148 C.2     1  UNL1       -0.0763
      3 C           1.7624    1.2113    4.9214 C.3     1  UNL1        0.0054
      4 C           0.4931    1.1193    5.5602 C.2     1  UNL1       -0.0763
      5 C          -0.4015    0.5035    4.6582 C.2     1  UNL1       -0.0654
      6 H          -0.0835   -0.3602    2.6358 H       1  UNL1        0.0615
      7 H           2.4423    0.4507    2.9334 H       1  UNL1        0.0578
      8 H           2.6950    1.4663    5.4107 H       1  UNL1        0.0394
      9 H           0.2952    1.3309    6.6041 H       1  UNL1        0.0578
     10 H          -1.4190    0.2069    4.8812 H       1  UNL1        0.0615
@<TRIPOS>BOND
     1     6     1    1
     2     7     2    1
     3     1     2    2
     4     1     5    1
     5     2     3    1
     6     5    10    1
     7     5     4    2
     8     3     8    1
     9     3     4    1
    10     4     9    1
