@<TRIPOS>MOLECULE
1,2,3,4,5
 10 10 0 0 0
SMALL
GASTEIGER

@<TRIPOS>ATOM
      1 C           6.8425    5.3954    3.9970 C.3     1  UNL1        0.0054
      2 C           6.3290    4.1189    3.6260 C.2     1  UNL1       -0.0763
      3 C           5.8170    4.2231    2.3165 C.2     1  UNL1       -0.0654
      4 C           6.0195    5.5497    1.8570 C.2     1  UNL1       -0.0654
      5 C           6.6724    6.2618    2.8746 C.2     1  UNL1       -0.0763
      6 H           7.4584    5.5989    4.8664 H       1  UNL1        0.0394
      7 H           6.4487    3.2058    4.1933 H       1  UNL1        0.0578
      8 H           5.4422    3.4030    1.7164 H       1  UNL1        0.0615
      9 H           5.8355    5.9016    0.8499 H       1  UNL1        0.0615
     10 H           7.0827    7.2589    2.7892 H       1  UNL1        0.0578
@<TRIPOS>BOND
     1     9     4    1
     2     8     3    1
     3     4     3    1
     4     4     5    2
     5     3     2    2
     6    10     5    1
     7     5     1    1
     8     2     1    1
     9     2     7    1
    10     1     6    1
