@<TRIPOS>MOLECULE
1,2,3,4,5
 25 25 0 0 0
SMALL
GASTEIGER

@<TRIPOS>ATOM
      1 C           1.1840    3.3992    6.8498 C.3     1  UNL1        0.0231
      2 C           0.3148    4.3896    6.3002 C.2     1  UNL1       -0.0584
      3 C           0.4553    5.5559    7.0850 C.2     1  UNL1       -0.0477
      4 C           1.3174    5.2520    8.1994 C.2     1  UNL1       -0.0477
      5 C           1.7559    3.9169    8.0562 C.2     1  UNL1       -0.0584
      6 C           1.2688    1.9794    6.3958 C.3     1  UNL1       -0.0510
      7 H           2.2322    1.5496    6.6581 H       1  UNL1        0.0242
      8 H           1.1470    1.9253    5.3186 H       1  UNL1        0.0242
      9 H           0.4850    1.3815    6.8653 H       1  UNL1        0.0242
     10 C          -0.7093    4.1407    5.2425 C.3     1  UNL1       -0.0424
     11 H          -1.5310    3.5623    5.6704 H       1  UNL1        0.0275
     12 H          -0.2948    3.5747    4.4148 H       1  UNL1        0.0275
     13 H          -1.1167    5.0717    4.8593 H       1  UNL1        0.0275
     14 C          -0.3505    6.8102    6.9733 C.3     1  UNL1       -0.0395
     15 H          -0.7102    6.9540    5.9582 H       1  UNL1        0.0278
     16 H           0.2456    7.6790    7.2510 H       1  UNL1        0.0278
     17 H          -1.2125    6.7699    7.6419 H       1  UNL1        0.0278
     18 C           1.4858    6.1443    9.3868 C.3     1  UNL1       -0.0395
     19 H           0.5805    6.1201    9.9969 H       1  UNL1        0.0278
     20 H           1.6560    7.1770    9.0820 H       1  UNL1        0.0278
     21 H           2.3246    5.8335   10.0045 H       1  UNL1        0.0278
     22 C           2.5591    3.1160    9.0319 C.3     1  UNL1       -0.0424
     23 H           3.0583    3.7598    9.7514 H       1  UNL1        0.0275
     24 H           3.3131    2.5247    8.5169 H       1  UNL1        0.0275
     25 H           1.9082    2.4309    9.5778 H       1  UNL1        0.0275
@<TRIPOS>BOND
     1    12    10    1
     2    13    10    1
     3    10    11    1
     4    10     2    1
     5     8     6    1
     6    15    14    1
     7     2     1    1
     8     2     3    2
     9     6     7    1
    10     6     1    1
    11     6     9    1
    12     1     5    1
    13    14     3    1
    14    14    16    1
    15    14    17    1
    16     3     4    1
    17     5     4    2
    18     5    22    1
    19     4    18    1
    20    24    22    1
    21    22    25    1
    22    22    23    1
    23    20    18    1
    24    18    19    1
    25    18    21    1
