@<TRIPOS>MOLECULE
1,2,3,4,5
 25 25 0 0 0
SMALL
GASTEIGER

@<TRIPOS>ATOM
      1 C           3.6882   -0.5532    5.9834 C.3     1  UNL1        0.0231
      2 C           3.2554    0.7058    6.5167 C.2     1  UNL1       -0.0584
      3 C           3.2224    1.6380    5.4542 C.2     1  UNL1       -0.0477
      4 C           3.6391    0.9526    4.2590 C.2     1  UNL1       -0.0477
      5 C           4.0138   -0.3663    4.6056 C.2     1  UNL1       -0.0584
      6 C           4.0104   -1.7478    6.8227 C.3     1  UNL1       -0.0510
      7 H           3.2416   -1.9020    7.5763 H       1  UNL1        0.0242
      8 H           4.9631   -1.6021    7.3354 H       1  UNL1        0.0242
      9 H           4.0762   -2.6461    6.2169 H       1  UNL1        0.0242
     10 C           3.0434    0.9831    7.9714 C.3     1  UNL1       -0.0424
     11 H           2.4728    0.1832    8.4384 H       1  UNL1        0.0275
     12 H           2.5113    1.9191    8.1197 H       1  UNL1        0.0275
     13 H           4.0064    1.0508    8.4807 H       1  UNL1        0.0275
     14 C           3.0487    3.1187    5.5552 C.3     1  UNL1       -0.0395
     15 H           2.5235    3.3994    6.4646 H       1  UNL1        0.0278
     16 H           4.0290    3.5994    5.5610 H       1  UNL1        0.0278
     17 H           2.4898    3.5106    4.7058 H       1  UNL1        0.0278
     18 C           3.9106    1.5948    2.9384 C.3     1  UNL1       -0.0395
     19 H           4.9489    1.9276    2.8816 H       1  UNL1        0.0278
     20 H           3.7321    0.8840    2.1328 H       1  UNL1        0.0278
     21 H           3.2702    2.4610    2.7845 H       1  UNL1        0.0278
     22 C           4.8059   -1.2725    3.7246 C.3     1  UNL1       -0.0424
     23 H           5.7229   -0.7630    3.4246 H       1  UNL1        0.0275
     24 H           5.0799   -2.1865    4.2436 H       1  UNL1        0.0275
     25 H           4.2588   -1.5277    2.8176 H       1  UNL1        0.0275
@<TRIPOS>BOND
     1    20    18    1
     2    21    18    1
     3    25    22    1
     4    19    18    1
     5    18     4    1
     6    23    22    1
     7    22    24    1
     8    22     5    1
     9     4     5    2
    10     4     3    1
    11     5     1    1
    12    17    14    1
    13     3    14    1
    14     3     2    2
    15    14    16    1
    16    14    15    1
    17     1     2    1
    18     1     6    1
    19     9     6    1
    20     2    10    1
    21     6     8    1
    22     6     7    1
    23    10    12    1
    24    10    11    1
    25    10    13    1
