@<TRIPOS>MOLECULE
1,2,3,4,5
 25 25 0 0 0
SMALL
GASTEIGER

@<TRIPOS>ATOM
      1 C           0.4667   -0.4501    8.5014 C.3     1  UNL1        0.0052
      2 C          -0.9145   -0.1800    8.3618 C.3     1  UNL1       -0.0053
      3 C          -1.5676   -0.6984    9.5202 C.3     1  UNL1        0.0052
      4 C          -0.5994   -1.4098   10.3032 C.2     1  UNL1       -0.0658
      5 C           0.6574   -1.2542    9.6812 C.2     1  UNL1       -0.0658
      6 C           1.5120   -0.2137    7.4594 C.3     1  UNL1       -0.0545
      7 H           1.6240   -1.0956    6.8256 H       1  UNL1        0.0239
      8 H           2.4792   -0.0080    7.9166 H       1  UNL1        0.0239
      9 H           1.2426    0.6289    6.8287 H       1  UNL1        0.0239
     10 C          -1.5694    0.3322    7.1216 C.3     1  UNL1       -0.0574
     11 H          -1.0481    1.1970    6.7232 H       1  UNL1        0.0236
     12 H          -2.6023    0.6064    7.3068 H       1  UNL1        0.0236
     13 H          -1.5559   -0.4501    6.3599 H       1  UNL1        0.0236
     14 C          -3.0419   -0.7579    9.7616 C.3     1  UNL1       -0.0545
     15 H          -3.4351   -1.7313    9.4616 H       1  UNL1        0.0239
     16 H          -3.5619    0.0114    9.1984 H       1  UNL1        0.0239
     17 H          -3.2616   -0.6152   10.8173 H       1  UNL1        0.0239
     18 C          -0.9286   -2.2652   11.4854 C.3     1  UNL1       -0.0430
     19 H          -1.4069   -3.1896   11.1564 H       1  UNL1        0.0275
     20 H          -1.6167   -1.7514   12.1533 H       1  UNL1        0.0275
     21 H          -0.0331   -2.5240   12.0443 H       1  UNL1        0.0275
     22 C           1.9323   -1.9582   10.0170 C.3     1  UNL1       -0.0430
     23 H           1.9343   -2.3110   11.0453 H       1  UNL1        0.0275
     24 H           2.7918   -1.3012    9.8834 H       1  UNL1        0.0275
     25 H           2.0635   -2.8186    9.3574 H       1  UNL1        0.0275
@<TRIPOS>BOND
     1    13    10    1
     2    11    10    1
     3     7     6    1
     4     9     6    1
     5    10    12    1
     6    10     2    1
     7     6     8    1
     8     6     1    1
     9     2     1    1
    10     2     3    1
    11     1     5    1
    12    16    14    1
    13    25    22    1
    14    15    14    1
    15     3    14    1
    16     3     4    1
    17     5    22    1
    18     5     4    2
    19    14    17    1
    20    24    22    1
    21    22    23    1
    22     4    18    1
    23    19    18    1
    24    18    21    1
    25    18    20    1
