@<TRIPOS>MOLECULE
1,2,3,4,5
 25 25 0 0 0
SMALL
GASTEIGER

@<TRIPOS>ATOM
      1 C           0.8722    2.5947    1.3840 C.2     1  UNL1       -0.0584
      2 C           1.3136    2.3901    0.0480 C.2     1  UNL1       -0.0477
      3 C           1.6166    1.0268   -0.1247 C.2     1  UNL1       -0.0477
      4 C           1.3840    0.3594    1.0884 C.2     1  UNL1       -0.0584
      5 C           0.9407    1.3163    2.0544 C.3     1  UNL1        0.0231
      6 C           0.0800    3.7789    1.8417 C.3     1  UNL1       -0.0424
      7 C           1.4262    3.4752   -0.9702 C.3     1  UNL1       -0.0395
      8 C           2.2048    0.4366   -1.3632 C.3     1  UNL1       -0.0395
      9 C           1.5626   -1.0913    1.3824 C.3     1  UNL1       -0.0424
     10 C           0.2511    0.9654    3.3386 C.3     1  UNL1       -0.0510
     11 H           0.0660    3.8321    2.9280 H       1  UNL1        0.0275
     12 H          -0.9480    3.7050    1.4821 H       1  UNL1        0.0275
     13 H           0.5153    4.7002    1.4585 H       1  UNL1        0.0275
     14 H           1.9316    4.3348   -0.5309 H       1  UNL1        0.0278
     15 H           0.4385    3.7985   -1.3031 H       1  UNL1        0.0278
     16 H           1.9955    3.1439   -1.8340 H       1  UNL1        0.0278
     17 H           1.7490    0.8650   -2.2533 H       1  UNL1        0.0278
     18 H           2.0682   -0.6409   -1.3899 H       1  UNL1        0.0278
     19 H           3.2769    0.6460   -1.3899 H       1  UNL1        0.0278
     20 H           1.8604   -1.6402    0.4942 H       1  UNL1        0.0275
     21 H           0.6374   -1.5198    1.7671 H       1  UNL1        0.0275
     22 H           2.3352   -1.2227    2.1432 H       1  UNL1        0.0275
     23 H           0.7393    0.1121    3.8055 H       1  UNL1        0.0242
     24 H          -0.7942    0.7127    3.1537 H       1  UNL1        0.0242
     25 H           0.2907    1.8050    4.0283 H       1  UNL1        0.0242
@<TRIPOS>BOND
     1    17     8    1
     2    16     7    1
     3    19     8    1
     4    18     8    1
     5     8     3    1
     6    15     7    1
     7     7    14    1
     8     7     2    1
     9     3     2    1
    10     3     4    2
    11     2     1    2
    12    20     9    1
    13     4     9    1
    14     4     5    1
    15     9    21    1
    16     9    22    1
    17     1     6    1
    18     1     5    1
    19    13     6    1
    20    12     6    1
    21     6    11    1
    22     5    10    1
    23    24    10    1
    24    10    23    1
    25    10    25    1
