@<TRIPOS>MOLECULE
1,2,3,4,5
 25 25 0 0 0
SMALL
GASTEIGER

@<TRIPOS>ATOM
      1 C           2.7396   -0.1710    3.5905 C.2     1  UNL1       -0.0658
      2 C           1.6939   -0.1741    4.5557 C.2     1  UNL1       -0.0658
      3 C           0.4871   -0.5861    3.9109 C.3     1  UNL1        0.0052
      4 C           0.8014   -0.8740    2.5461 C.3     1  UNL1       -0.0053
      5 C           2.1997   -0.6318    2.3580 C.3     1  UNL1        0.0052
      6 C           4.1984   -0.0612    3.9372 C.3     1  UNL1       -0.0430
      7 C           1.9301   -0.0776    6.0352 C.3     1  UNL1       -0.0430
      8 C          -0.8196   -0.9080    4.5785 C.3     1  UNL1       -0.0545
      9 C          -0.1190   -1.5452    1.5675 C.3     1  UNL1       -0.0574
     10 C           2.9952   -1.0312    1.1502 C.3     1  UNL1       -0.0545
     11 H           4.8093    0.1026    3.0515 H       1  UNL1        0.0275
     12 H           4.5347   -0.9900    4.4061 H       1  UNL1        0.0275
     13 H           4.3812    0.7487    4.6441 H       1  UNL1        0.0275
     14 H           2.5063    0.8087    6.3013 H       1  UNL1        0.0275
     15 H           2.4960   -0.9535    6.3628 H       1  UNL1        0.0275
     16 H           0.9948   -0.0581    6.5903 H       1  UNL1        0.0275
     17 H          -0.8418   -1.9571    4.8840 H       1  UNL1        0.0239
     18 H          -1.6514   -0.7334    3.8975 H       1  UNL1        0.0239
     19 H          -0.9781   -0.2925    5.4629 H       1  UNL1        0.0239
     20 H          -0.1456   -2.6221    1.7501 H       1  UNL1        0.0236
     21 H           0.2119   -1.3795    0.5440 H       1  UNL1        0.0236
     22 H          -1.1327   -1.1576    1.6607 H       1  UNL1        0.0236
     23 H           3.2875   -2.0805    1.2369 H       1  UNL1        0.0239
     24 H           3.9018   -0.4360    1.0535 H       1  UNL1        0.0239
     25 H           2.4137   -0.9161    0.2376 H       1  UNL1        0.0239
@<TRIPOS>BOND
     1    25    10    1
     2    21     9    1
     3    24    10    1
     4    10    23    1
     5    10     5    1
     6     9    22    1
     7     9    20    1
     8     9     4    1
     9     5     4    1
    10     5     1    1
    11     4     3    1
    12    11     6    1
    13     1     6    1
    14     1     2    2
    15    18     8    1
    16     3     2    1
    17     3     8    1
    18     6    12    1
    19     6    13    1
    20     2     7    1
    21     8    17    1
    22     8    19    1
    23     7    14    1
    24     7    15    1
    25     7    16    1
