@<TRIPOS>MOLECULE
3,5,6,8,14
 34 34 0 0 0
SMALL
GASTEIGER

@<TRIPOS>ATOM
      1 SI         -3.6635   -1.0033    3.0219 Si      1  UNL1        0.0000
      2 SI         -1.5442    1.8937    7.6676 Si      1  UNL1        0.0000
      3 C          -2.3139    0.2802    5.3085 C.3     1  UNL1        0.0000
      4 H          -2.0372   -0.6626    5.7609 H       1  UNL1        0.0000
      5 C          -3.0261    0.4137    4.0869 C.3     1  UNL1        0.0000
      6 C          -3.4046    1.7823    3.9890 C.2     1  UNL1        0.0000
      7 H          -4.0714    2.1838    3.2372 H       1  UNL1        0.0000
      8 C          -2.9197    2.4694    5.1098 C.2     1  UNL1        0.0000
      9 H          -3.1242    3.5044    5.3588 H       1  UNL1        0.0000
     10 C          -2.3001   -2.3422    2.8919 C.3     1  UNL1        0.0000
     11 H          -1.8924   -2.4087    1.8883 H       1  UNL1        0.0000
     12 H          -2.7003   -3.3204    3.1373 H       1  UNL1        0.0000
     13 H          -1.4751   -2.1434    3.5722 H       1  UNL1        0.0000
     14 C          -2.2197    1.5503    5.9436 C.3     1  UNL1        0.0000
     15 C          -5.2116   -1.7426    3.8624 C.3     1  UNL1        0.0000
     16 H          -4.9760   -2.1447    4.8429 H       1  UNL1        0.0000
     17 H          -5.6288   -2.5487    3.2672 H       1  UNL1        0.0000
     18 H          -5.9883   -0.9956    3.9939 H       1  UNL1        0.0000
     19 C          -2.9922    2.3647    8.8199 C.3     1  UNL1        0.0000
     20 H          -2.6353    2.5723    9.8233 H       1  UNL1        0.0000
     21 H          -3.7216    1.5638    8.8890 H       1  UNL1        0.0000
     22 H          -3.5119    3.2499    8.4671 H       1  UNL1        0.0000
     23 C          -4.1538   -0.3237    1.3030 C.3     1  UNL1        0.0000
     24 H          -5.0125    0.3369    1.3738 H       1  UNL1        0.0000
     25 H          -4.4326   -1.1357    0.6394 H       1  UNL1        0.0000
     26 H          -3.3563    0.2312    0.8157 H       1  UNL1        0.0000
     27 C          -0.2860    3.3324    7.6164 C.3     1  UNL1        0.0000
     28 H           0.1489    3.4936    8.5977 H       1  UNL1        0.0000
     29 H          -0.7608    4.2650    7.3269 H       1  UNL1        0.0000
     30 H           0.5340    3.1426    6.9271 H       1  UNL1        0.0000
     31 C          -0.6850    0.3228    8.3331 C.3     1  UNL1        0.0000
     32 H           0.1415    0.0066    7.7048 H       1  UNL1        0.0000
     33 H          -1.3786   -0.5075    8.4107 H       1  UNL1        0.0000
     34 H          -0.2864    0.5024    9.3257 H       1  UNL1        0.0000
@<TRIPOS>BOND
     1    25    23    1
     2    26    23    1
     3    23    24    1
     4    23     1    1
     5    11    10    1
     6    10     1    1
     7    10    12    1
     8    10    13    1
     9     1    15    1
    10     1     5    1
    11     7     6    1
    12    17    15    1
    13    15    18    1
    14    15    16    1
    15     6     5    1
    16     6     8    2
    17     5     3    1
    18     8     9    1
    19     8    14    1
    20     3     4    1
    21     3    14    1
    22    14     2    1
    23    30    27    1
    24    29    27    1
    25    27     2    1
    26    27    28    1
    27     2    31    1
    28     2    19    1
    29    32    31    1
    30    31    33    1
    31    31    34    1
    32    22    19    1
    33    19    21    1
    34    19    20    1
