@<TRIPOS>MOLECULE
1,2,3,4,5
 25 25 0 0 0
SMALL
GASTEIGER

@<TRIPOS>ATOM
      1 C          -4.5842    4.2757   -2.9426 C.2     1  UNL1       -0.0477
      2 C          -5.2091    4.3122   -4.2204 C.2     1  UNL1       -0.0584
      3 C          -4.9125    3.0810   -4.8960 C.3     1  UNL1        0.0231
      4 C          -4.0584    2.3171   -4.0557 C.2     1  UNL1       -0.0584
      5 C          -3.8256    3.0727   -2.8623 C.2     1  UNL1       -0.0477
      6 C          -4.8394    5.1870   -1.7873 C.3     1  UNL1       -0.0395
      7 H          -5.4436    4.6623   -1.0445 H       1  UNL1        0.0278
      8 H          -5.3801    6.0764   -2.0973 H       1  UNL1        0.0278
      9 H          -3.9078    5.4850   -1.3156 H       1  UNL1        0.0278
     10 C          -6.2225    5.3194   -4.6706 C.3     1  UNL1       -0.0424
     11 H          -7.2158    5.0380   -4.3158 H       1  UNL1        0.0275
     12 H          -6.2547    5.3795   -5.7557 H       1  UNL1        0.0275
     13 H          -5.9869    6.3073   -4.2837 H       1  UNL1        0.0275
     14 C          -5.5460    2.6080   -6.1674 C.3     1  UNL1       -0.0510
     15 H          -4.9016    1.9001   -6.6822 H       1  UNL1        0.0242
     16 H          -5.7446    3.4395   -6.8389 H       1  UNL1        0.0242
     17 H          -6.4938    2.1118   -5.9497 H       1  UNL1        0.0242
     18 C          -3.6365    0.9006   -4.2942 C.3     1  UNL1       -0.0424
     19 H          -4.4308    0.2214   -3.9790 H       1  UNL1        0.0275
     20 H          -2.7394    0.6564   -3.7310 H       1  UNL1        0.0275
     21 H          -3.4384    0.7233   -5.3487 H       1  UNL1        0.0275
     22 C          -3.1755    2.5807   -1.6111 C.3     1  UNL1       -0.0395
     23 H          -2.6390    3.3874   -1.1167 H       1  UNL1        0.0278
     24 H          -2.4754    1.7735   -1.8158 H       1  UNL1        0.0278
     25 H          -3.9322    2.2040   -0.9202 H       1  UNL1        0.0278
@<TRIPOS>BOND
     1    16    14    1
     2    15    14    1
     3    14    17    1
     4    14     3    1
     5    12    10    1
     6    21    18    1
     7     3     2    1
     8     3     4    1
     9    10    11    1
    10    10    13    1
    11    10     2    1
    12    18     4    1
    13    18    19    1
    14    18    20    1
    15     2     1    2
    16     4     5    2
    17     1     5    1
    18     1     6    1
    19     5    22    1
    20     8     6    1
    21    24    22    1
    22     6     9    1
    23     6     7    1
    24    22    23    1
    25    22    25    1
