@<TRIPOS>MOLECULE
1,2,3,4,5
 25 25 0 0 0
SMALL
GASTEIGER

@<TRIPOS>ATOM
      1 C          -2.6970    2.0589   15.2220 C.2     1  UNL1       -0.0658
      2 C          -3.0513    3.4232   15.0876 C.2     1  UNL1       -0.0658
      3 C          -3.0956    3.9951   16.3995 C.3     1  UNL1        0.0052
      4 C          -2.8333    2.9627   17.3456 C.3     1  UNL1       -0.0053
      5 C          -2.5292    1.7780   16.6195 C.3     1  UNL1        0.0052
      6 C          -2.6882    1.0521   14.1159 C.3     1  UNL1       -0.0430
      7 H          -3.7126    0.8144   13.8232 H       1  UNL1        0.0275
      8 H          -2.2046    0.1326   14.4340 H       1  UNL1        0.0275
      9 H          -2.1645    1.4309   13.2392 H       1  UNL1        0.0275
     10 C          -3.4670    4.1203   13.8307 C.3     1  UNL1       -0.0430
     11 H          -3.1828    3.5448   12.9534 H       1  UNL1        0.0275
     12 H          -3.0113    5.1063   13.7626 H       1  UNL1        0.0275
     13 H          -4.5507    4.2504   13.8181 H       1  UNL1        0.0275
     14 C          -3.5595    5.3769   16.7294 C.3     1  UNL1       -0.0545
     15 H          -4.6420    5.3928   16.8691 H       1  UNL1        0.0239
     16 H          -3.3081    6.0681   15.9294 H       1  UNL1        0.0239
     17 H          -3.0891    5.7266   17.6444 H       1  UNL1        0.0239
     18 C          -3.0817    3.0754   18.8131 C.3     1  UNL1       -0.0574
     19 H          -2.6803    4.0040   19.2084 H       1  UNL1        0.0236
     20 H          -2.6344    2.2484   19.3528 H       1  UNL1        0.0236
     21 H          -4.1580    3.0640   18.9979 H       1  UNL1        0.0236
     22 C          -2.3720    0.4153   17.2164 C.3     1  UNL1       -0.0545
     23 H          -1.8468    0.4679   18.1663 H       1  UNL1        0.0239
     24 H          -1.8084   -0.2421   16.5592 H       1  UNL1        0.0239
     25 H          -3.3509   -0.0353   17.3921 H       1  UNL1        0.0239
@<TRIPOS>BOND
     1    11    10    1
     2     9     6    1
     3    12    10    1
     4    13    10    1
     5     7     6    1
     6    10     2    1
     7     6     8    1
     8     6     1    1
     9     2     1    2
    10     2     3    1
    11     1     5    1
    12    16    14    1
    13     3    14    1
    14     3     4    1
    15    24    22    1
    16     5    22    1
    17     5     4    1
    18    14    15    1
    19    14    17    1
    20    22    25    1
    21    22    23    1
    22     4    18    1
    23    18    21    1
    24    18    19    1
    25    18    20    1
