@<TRIPOS>MOLECULE
1,2,3,4,5
 25 25 0 0 0
SMALL
GASTEIGER

@<TRIPOS>ATOM
      1 C           0.4772    6.4809   18.6191 C.2     1  UNL1       -0.0584
      2 C           1.0226    5.4184   19.4060 C.3     1  UNL1        0.0231
      3 C           2.0465    4.7809   18.6409 C.2     1  UNL1       -0.0584
      4 C           2.0529    5.3739   17.3545 C.2     1  UNL1       -0.0477
      5 C           1.1007    6.4520   17.3513 C.2     1  UNL1       -0.0477
      6 C          -0.4560    7.5292   19.1376 C.3     1  UNL1       -0.0424
      7 H           0.0695    8.1736   19.8450 H       1  UNL1        0.0275
      8 H          -1.2978    7.0796   19.6606 H       1  UNL1        0.0275
      9 H          -0.8365    8.1488   18.3299 H       1  UNL1        0.0275
     10 C           0.7507    5.2462   20.8658 C.3     1  UNL1       -0.0510
     11 H           1.2498    6.0336   21.4343 H       1  UNL1        0.0242
     12 H           1.1069    4.2858   21.2233 H       1  UNL1        0.0242
     13 H          -0.3166    5.3129   21.0652 H       1  UNL1        0.0242
     14 C           3.1009    3.8579   19.1561 C.3     1  UNL1       -0.0424
     15 H           2.7984    3.3910   20.0876 H       1  UNL1        0.0275
     16 H           4.0144    4.4273   19.3422 H       1  UNL1        0.0275
     17 H           3.3313    3.0770   18.4392 H       1  UNL1        0.0275
     18 C           3.1125    5.1336   16.3262 C.3     1  UNL1       -0.0395
     19 H           4.0273    5.6610   16.6048 H       1  UNL1        0.0278
     20 H           2.8061    5.4813   15.3436 H       1  UNL1        0.0278
     21 H           3.3468    4.0742   16.2519 H       1  UNL1        0.0278
     22 C           0.9743    7.5132   16.3046 C.3     1  UNL1       -0.0395
     23 H          -0.0693    7.7228   16.0730 H       1  UNL1        0.0278
     24 H           1.4790    7.2182   15.3890 H       1  UNL1        0.0278
     25 H           1.4331    8.4367   16.6631 H       1  UNL1        0.0278
@<TRIPOS>BOND
     1    20    18    1
     2    24    22    1
     3    23    22    1
     4    21    18    1
     5    22    25    1
     6    22     5    1
     7    18    19    1
     8    18     4    1
     9     5     4    1
    10     5     1    2
    11     4     3    2
    12     9     6    1
    13    17    14    1
    14     1     6    1
    15     1     2    1
    16     3    14    1
    17     3     2    1
    18     6     8    1
    19     6     7    1
    20    14    16    1
    21    14    15    1
    22     2    10    1
    23    10    13    1
    24    10    12    1
    25    10    11    1
