@<TRIPOS>MOLECULE
1,2,3,4,5
 10 10 0 0 0
SMALL
GASTEIGER

@<TRIPOS>ATOM
      1 C          12.7972    6.9281    6.2883 C.3     1  UNL1       -0.0127
      2 C          12.5515    5.9434    7.2890 C.2     1  UNL1       -0.0837
      3 C          12.6015    4.6741    6.6734 C.2     1  UNL1       -0.0837
      4 C          12.8566    4.8659    5.2871 C.3     1  UNL1       -0.0127
      5 C          13.0143    6.2583    5.0624 C.3     1  UNL1       -0.0235
      6 H          12.9527    7.9790    6.4682 H       1  UNL1        0.0352
      7 H          12.4825    6.1296    8.3485 H       1  UNL1        0.0572
      8 H          12.5598    3.7236    7.1799 H       1  UNL1        0.0572
      9 H          13.0819    4.0862    4.5780 H       1  UNL1        0.0352
     10 H          13.3338    6.7160    4.1402 H       1  UNL1        0.0315
@<TRIPOS>BOND
     1    10     5    1
     2     9     4    1
     3     5     4    1
     4     5     1    1
     5     4     3    1
     6     1     6    1
     7     1     2    1
     8     3     8    1
     9     3     2    2
    10     2     7    1
