@<TRIPOS>MOLECULE
1,3,5,7,9
 25 25 0 0 0
SMALL
GASTEIGER

@<TRIPOS>ATOM
      1 C           7.0551   10.9374    1.8235 C.2     1  UNL1       -0.0584
      2 C           7.6652    9.7976    2.5774 C.3     1  UNL1       -0.0424
      3 C           5.9772   10.8585    0.8831 C.2     1  UNL1       -0.0477
      4 C           5.1850    9.6340    0.5398 C.3     1  UNL1       -0.0395
      5 C           5.9036   12.0982    0.1855 C.2     1  UNL1       -0.0477
      6 C           5.1942   12.2934   -1.1207 C.3     1  UNL1       -0.0395
      7 C           6.9611   12.9534    0.7007 C.2     1  UNL1       -0.0584
      8 C           7.4031   14.2269    0.0373 C.3     1  UNL1       -0.0424
      9 C           7.6819   12.2166    1.6799 C.3     1  UNL1        0.0231
     10 C           8.9903   12.5741    2.3133 C.3     1  UNL1       -0.0510
     11 H           8.0069   10.1265    3.5568 H       1  UNL1        0.0275
     12 H           6.9576    8.9831    2.7135 H       1  UNL1        0.0275
     13 H           8.5280    9.4216    2.0221 H       1  UNL1        0.0275
     14 H           5.1944    8.9190    1.3595 H       1  UNL1        0.0278
     15 H           5.6178    9.1541   -0.3410 H       1  UNL1        0.0278
     16 H           4.1503    9.8910    0.3166 H       1  UNL1        0.0278
     17 H           5.0746   13.3473   -1.3588 H       1  UNL1        0.0278
     18 H           4.2142   11.8225   -1.1063 H       1  UNL1        0.0278
     19 H           5.7827   11.8290   -1.9164 H       1  UNL1        0.0278
     20 H           8.0322   14.8242    0.6942 H       1  UNL1        0.0275
     21 H           6.5480   14.8342   -0.2586 H       1  UNL1        0.0275
     22 H           7.9770   13.9870   -0.8608 H       1  UNL1        0.0275
     23 H           9.2184   13.6328    2.2032 H       1  UNL1        0.0242
     24 H           9.7898   12.0022    1.8373 H       1  UNL1        0.0242
     25 H           8.9888   12.3154    3.3721 H       1  UNL1        0.0242
@<TRIPOS>BOND
     1    19     6    1
     2    17     6    1
     3     6    18    1
     4     6     5    1
     5    22     8    1
     6    15     4    1
     7    21     8    1
     8     8    20    1
     9     8     7    1
    10     5     7    2
    11     5     3    1
    12    16     4    1
    13     4     3    1
    14     4    14    1
    15     7     9    1
    16     3     1    2
    17     9     1    1
    18     9    10    1
    19     1     2    1
    20    24    10    1
    21    13     2    1
    22    23    10    1
    23    10    25    1
    24     2    12    1
    25     2    11    1
