@<TRIPOS>MOLECULE
1,2,3,4,5
 13 13 0 0 0
SMALL
GASTEIGER

@<TRIPOS>ATOM
      1 C          -0.3548    3.3916   -0.1515 C.2     1  UNL1       -0.0650
      2 C           0.1109    2.1706    0.4129 C.2     1  UNL1       -0.0625
      3 C           0.3723    2.3824    1.7803 C.2     1  UNL1       -0.0651
      4 C           0.0919    3.7335    2.0689 C.2     1  UNL1       -0.0761
      5 C          -0.3569    4.3536    0.8846 C.3     1  UNL1        0.0084
      6 C          -0.9678    3.5510   -1.5085 C.3     1  UNL1       -0.0429
      7 H          -2.0295    3.2927   -1.4612 H       1  UNL1        0.0275
      8 H          -0.4884    2.8943   -2.2332 H       1  UNL1        0.0275
      9 H          -0.8832    4.5784   -1.8603 H       1  UNL1        0.0275
     10 H           0.1121    1.2117   -0.0902 H       1  UNL1        0.0617
     11 H           0.5796    1.6127    2.5102 H       1  UNL1        0.0615
     12 H           0.0217    4.1627    3.0614 H       1  UNL1        0.0578
     13 H          -0.7673    5.3539    0.8183 H       1  UNL1        0.0397
@<TRIPOS>BOND
     1     8     6    1
     2     9     6    1
     3     6     7    1
     4     6     1    1
     5     1     2    2
     6     1     5    1
     7    10     2    1
     8     2     3    1
     9    13     5    1
    10     5     4    1
    11     3     4    2
    12     3    11    1
    13     4    12    1
