@<TRIPOS>MOLECULE
1,2,3,4,5
 13 13 0 0 0
SMALL
GASTEIGER

@<TRIPOS>ATOM
      1 C           1.0857    5.3097   -1.3410 C.2     1  UNL1       -0.0723
      2 C           1.9309    5.7684   -0.2971 C.3     1  UNL1       -0.0097
      3 C           1.2477    5.6192    0.9269 C.3     1  UNL1       -0.0232
      4 C          -0.0104    5.0428    0.6542 C.3     1  UNL1       -0.0124
      5 C          -0.1202    4.8886   -0.7469 C.2     1  UNL1       -0.0808
      6 C           1.3748    5.4036   -2.8072 C.3     1  UNL1       -0.0435
      7 H           2.8898    6.2522   -0.4395 H       1  UNL1        0.0354
      8 H           1.5890    5.9671    1.8936 H       1  UNL1        0.0316
      9 H          -0.8050    4.8959    1.3754 H       1  UNL1        0.0352
     10 H          -1.0218    4.6295   -1.2848 H       1  UNL1        0.0575
     11 H           2.3554    4.9794   -3.0314 H       1  UNL1        0.0274
     12 H           0.6170    4.8776   -3.3859 H       1  UNL1        0.0274
     13 H           1.3822    6.4498   -3.1185 H       1  UNL1        0.0274
@<TRIPOS>BOND
     1    12     6    1
     2    13     6    1
     3    11     6    1
     4     6     1    1
     5     1     5    2
     6     1     2    1
     7    10     5    1
     8     5     4    1
     9     7     2    1
    10     2     3    1
    11     4     3    1
    12     4     9    1
    13     3     8    1
