@<TRIPOS>MOLECULE
1,2,3,4,5
 13 13 0 0 0
SMALL
GASTEIGER

@<TRIPOS>ATOM
      1 C           1.0824    1.6428   -1.3394 C.2     1  UNL1       -0.0723
      2 C           1.9312    1.1833   -0.2988 C.3     1  UNL1       -0.0097
      3 C           1.2520    1.3309    0.9275 C.3     1  UNL1       -0.0232
      4 C          -0.0073    1.9070    0.6596 C.3     1  UNL1       -0.0124
      5 C          -0.1221    2.0621   -0.7409 C.2     1  UNL1       -0.0808
      6 C           1.3675    1.5514   -2.8066 C.3     1  UNL1       -0.0435
      7 H           2.8902    0.7008   -0.4448 H       1  UNL1        0.0354
      8 H           1.5969    0.9828    1.8928 H       1  UNL1        0.0316
      9 H          -0.7993    2.0532    1.3838 H       1  UNL1        0.0352
     10 H          -1.0257    2.3212   -1.2754 H       1  UNL1        0.0575
     11 H           2.3484    1.9743   -3.0324 H       1  UNL1        0.0274
     12 H           0.6089    2.0801   -3.3822 H       1  UNL1        0.0274
     13 H           1.3719    0.5056   -3.1198 H       1  UNL1        0.0274
@<TRIPOS>BOND
     1    12     6    1
     2    13     6    1
     3    11     6    1
     4     6     1    1
     5     1     5    2
     6     1     2    1
     7    10     5    1
     8     5     4    1
     9     7     2    1
    10     2     3    1
    11     4     3    1
    12     4     9    1
    13     3     8    1
