@<TRIPOS>MOLECULE
1,2,4,5,7
 34 34 0 0 0
SMALL
GASTEIGER

@<TRIPOS>ATOM
      1 C           6.8388    0.0302    3.2939 C.2     1  UNL1       -0.0562
      2 C           7.0162    0.8838    2.1778 C.2     1  UNL1       -0.0580
      3 H           6.2500    1.1446    1.4612 H       1  UNL1        0.0620
      4 C           8.3994    1.1593    2.0205 C.2     1  UNL1       -0.0453
      5 C           9.0823    0.4810    3.0568 C.2     1  UNL1       -0.0723
      6 H          10.1567    0.3980    3.1560 H       1  UNL1        0.0581
      7 C           8.1252   -0.2073    3.8429 C.3     1  UNL1        0.0095
      8 H           8.3491   -0.9589    4.5885 H       1  UNL1        0.0397
      9 C           5.5965   -0.7262    3.7219 C.3     1  UNL1       -0.0158
     10 C           4.3427   -0.2107    3.0082 C.3     1  UNL1       -0.0563
     11 H           3.4724   -0.7773    3.3337 H       1  UNL1        0.0238
     12 H           4.4392   -0.3398    1.9326 H       1  UNL1        0.0238
     13 H           4.1659    0.8394    3.2192 H       1  UNL1        0.0238
     14 C           5.4285   -0.6133    5.2500 C.3     1  UNL1       -0.0563
     15 H           6.0418   -1.3571    5.7541 H       1  UNL1        0.0238
     16 H           4.3937   -0.7959    5.5343 H       1  UNL1        0.0238
     17 H           5.7318    0.3771    5.6082 H       1  UNL1        0.0238
     18 C           5.7747   -2.2074    3.3426 C.3     1  UNL1       -0.0563
     19 H           6.6604   -2.6267    3.8127 H       1  UNL1        0.0238
     20 H           5.8843   -2.3091    2.2656 H       1  UNL1        0.0238
     21 H           4.9088   -2.7848    3.6594 H       1  UNL1        0.0238
     22 C           9.0204    1.8559    0.8247 C.3     1  UNL1       -0.0129
     23 C           8.6850    1.0475   -0.4394 C.3     1  UNL1       -0.0561
     24 H           9.1600    1.4948   -1.3097 H       1  UNL1        0.0238
     25 H           7.6118    1.0195   -0.6108 H       1  UNL1        0.0238
     26 H           9.0412    0.0249   -0.3377 H       1  UNL1        0.0238
     27 C          10.5428    1.9462    0.9682 C.3     1  UNL1       -0.0561
     28 H          10.8088    2.4823    1.8770 H       1  UNL1        0.0238
     29 H          10.9612    2.4822    0.1190 H       1  UNL1        0.0238
     30 H          10.9882    0.9543    0.9930 H       1  UNL1        0.0238
     31 C           8.4535    3.2750    0.6910 C.3     1  UNL1       -0.0561
     32 H           8.7103    3.8605    1.5769 H       1  UNL1        0.0238
     33 H           7.3713    3.2514    0.5676 H       1  UNL1        0.0238
     34 H           8.8816    3.7681   -0.1803 H       1  UNL1        0.0238
@<TRIPOS>BOND
     1    24    23    1
     2    25    23    1
     3    23    26    1
     4    23    22    1
     5    34    31    1
     6    29    27    1
     7    33    31    1
     8    31    22    1
     9    31    32    1
    10    22    27    1
    11    22     4    1
    12    27    30    1
    13    27    28    1
    14     3     2    1
    15    12    10    1
    16     4     2    1
    17     4     5    2
    18     2     1    2
    19    20    18    1
    20    10    13    1
    21    10    11    1
    22    10     9    1
    23     5     6    1
    24     5     7    1
    25     1     9    1
    26     1     7    1
    27    18    21    1
    28    18     9    1
    29    18    19    1
    30     9    14    1
    31     7     8    1
    32    14    16    1
    33    14    17    1
    34    14    15    1
