@<TRIPOS>MOLECULE
3,5,6,8,10
 34 34 0 0 0
SMALL
GASTEIGER

@<TRIPOS>ATOM
      1 SI          3.6209    2.5056   11.0055 Si      1  UNL1        0.0000
      2 SI          6.4314    6.3445   13.9552 Si      1  UNL1        0.0000
      3 C           4.3972    4.7901   12.5419 C.2     1  UNL1        0.0000
      4 H           4.4756    5.3846   11.6406 H       1  UNL1        0.0000
      5 C           3.8304    3.4917   12.5852 C.2     1  UNL1        0.0000
      6 C           4.1355    2.9756   13.8764 C.2     1  UNL1        0.0000
      7 H           3.9783    1.9570   14.1998 H       1  UNL1        0.0000
      8 C           4.8332    3.9396   14.6010 C.2     1  UNL1        0.0000
      9 H           5.2818    3.7763   15.5700 H       1  UNL1        0.0000
     10 C           5.0306    5.0919   13.7801 C.3     1  UNL1        0.0000
     11 C           5.3262    2.3738   10.1504 C.3     1  UNL1        0.0000
     12 H           5.7021    3.3550    9.8779 H       1  UNL1        0.0000
     13 H           5.2745    1.7771    9.2443 H       1  UNL1        0.0000
     14 H           6.0606    1.9160   10.8059 H       1  UNL1        0.0000
     15 C           3.0406    0.7120   11.3556 C.3     1  UNL1        0.0000
     16 H           3.0242    0.1429   10.4317 H       1  UNL1        0.0000
     17 H           2.0485    0.6417   11.7911 H       1  UNL1        0.0000
     18 H           3.7296    0.2118   12.0285 H       1  UNL1        0.0000
     19 C           2.4191    3.3791    9.7909 C.3     1  UNL1        0.0000
     20 H           2.1824    4.3892   10.1153 H       1  UNL1        0.0000
     21 H           1.4842    2.8412    9.6676 H       1  UNL1        0.0000
     22 H           2.8721    3.4567    8.8081 H       1  UNL1        0.0000
     23 C           6.1446    8.0125   14.8471 C.3     1  UNL1        0.0000
     24 H           5.2336    8.5089   14.5315 H       1  UNL1        0.0000
     25 H           6.9743    8.6771   14.6245 H       1  UNL1        0.0000
     26 H           6.1076    7.9031   15.9256 H       1  UNL1        0.0000
     27 C           7.0565    6.7309   12.1865 C.3     1  UNL1        0.0000
     28 H           6.3386    7.3268   11.6325 H       1  UNL1        0.0000
     29 H           7.2459    5.8244   11.6203 H       1  UNL1        0.0000
     30 H           7.9834    7.2939   12.2225 H       1  UNL1        0.0000
     31 C           7.8388    5.4408   14.8937 C.3     1  UNL1        0.0000
     32 H           7.5781    5.2641   15.9319 H       1  UNL1        0.0000
     33 H           8.7474    6.0337   14.8858 H       1  UNL1        0.0000
     34 H           8.0685    4.4803   14.4441 H       1  UNL1        0.0000
@<TRIPOS>BOND
     1    22    19    1
     2    13    11    1
     3    21    19    1
     4    19    20    1
     5    19     1    1
     6    12    11    1
     7    11    14    1
     8    11     1    1
     9    16    15    1
    10     1    15    1
    11     1     5    1
    12    15    17    1
    13    15    18    1
    14    29    27    1
    15    28    27    1
    16     4     3    1
    17    27    30    1
    18    27     2    1
    19     3     5    2
    20     3    10    1
    21     5     6    1
    22    10     2    1
    23    10     8    1
    24     6     7    1
    25     6     8    2
    26     2    23    1
    27     2    31    1
    28    34    31    1
    29    24    23    1
    30     8     9    1
    31    25    23    1
    32    23    26    1
    33    33    31    1
    34    31    32    1
