@<TRIPOS>MOLECULE
3,5,6,8,9
 34 34 0 0 0
SMALL
GASTEIGER

@<TRIPOS>ATOM
      1 SI          7.8446    4.7753   14.5748 Si      1  UNL1        0.0000
      2 SI          4.9096    0.4989   12.1766 Si      1  UNL1        0.0000
      3 C           5.3763    4.4839   12.9730 C.2     1  UNL1        0.0000
      4 H           4.9717    5.4462   13.2592 H       1  UNL1        0.0000
      5 C           6.6740    3.9999   13.3241 C.3     1  UNL1        0.0000
      6 C           6.7012    2.6399   12.9172 C.2     1  UNL1        0.0000
      7 H           7.4793    1.9315   13.1646 H       1  UNL1        0.0000
      8 C           5.4749    2.2845   12.3111 C.2     1  UNL1        0.0000
      9 C           4.6563    3.4469   12.3774 C.2     1  UNL1        0.0000
     10 H           3.5947    3.4627   12.1724 H       1  UNL1        0.0000
     11 C           9.4086    5.6650   13.9266 C.3     1  UNL1        0.0000
     12 H           9.1749    6.5908   13.4093 H       1  UNL1        0.0000
     13 H           9.9844    5.0447   13.2473 H       1  UNL1        0.0000
     14 H          10.0513    5.9215   14.7637 H       1  UNL1        0.0000
     15 C           8.4248    3.3758   15.7456 C.3     1  UNL1        0.0000
     16 H           7.5910    2.7823   16.1070 H       1  UNL1        0.0000
     17 H           8.9400    3.7808   16.6105 H       1  UNL1        0.0000
     18 H           9.1143    2.7056   15.2426 H       1  UNL1        0.0000
     19 C           6.8338    6.0520   15.5867 C.3     1  UNL1        0.0000
     20 H           5.9561    5.6001   16.0367 H       1  UNL1        0.0000
     21 H           6.4979    6.8808   14.9712 H       1  UNL1        0.0000
     22 H           7.4354    6.4679   16.3880 H       1  UNL1        0.0000
     23 C           5.2436   -0.3368   13.8642 C.3     1  UNL1        0.0000
     24 H           4.8719   -1.3569   13.8819 H       1  UNL1        0.0000
     25 H           4.7632    0.2035   14.6741 H       1  UNL1        0.0000
     26 H           6.3060   -0.3724   14.0827 H       1  UNL1        0.0000
     27 C           3.0239    0.3876   11.8444 C.3     1  UNL1        0.0000
     28 H           2.7638    0.5435   10.8020 H       1  UNL1        0.0000
     29 H           2.4684    1.1051   12.4395 H       1  UNL1        0.0000
     30 H           2.6629   -0.5990   12.1158 H       1  UNL1        0.0000
     31 C           5.8092   -0.5343   10.8403 C.3     1  UNL1        0.0000
     32 H           5.5259   -0.2613    9.8280 H       1  UNL1        0.0000
     33 H           5.5692   -1.5858   10.9653 H       1  UNL1        0.0000
     34 H           6.8875   -0.4368   10.9207 H       1  UNL1        0.0000
@<TRIPOS>BOND
     1    32    31    1
     2    28    27    1
     3    31    34    1
     4    31    33    1
     5    31     2    1
     6    27    30    1
     7    27     2    1
     8    27    29    1
     9    10     9    1
    10     2     8    1
    11     2    23    1
    12     8     9    1
    13     8     6    2
    14     9     3    2
    15     6     7    1
    16     6     5    1
    17     3     4    1
    18     3     5    1
    19    13    11    1
    20     5     1    1
    21    12    11    1
    22    23    24    1
    23    23    26    1
    24    23    25    1
    25    11     1    1
    26    11    14    1
    27     1    19    1
    28     1    15    1
    29    21    19    1
    30    18    15    1
    31    19    20    1
    32    19    22    1
    33    15    16    1
    34    15    17    1
