@<TRIPOS>MOLECULE
3,5,6,8,10
 34 34 0 0 0
SMALL
GASTEIGER

@<TRIPOS>ATOM
      1 SI          1.3882   -2.2671    1.7017 Si      1  UNL1        0.0000
      2 SI         -1.0277    1.7769    4.7472 Si      1  UNL1        0.0000
      3 C           0.8213    0.0265    3.3110 C.2     1  UNL1        0.0000
      4 H           0.8420    0.6611    2.4347 H       1  UNL1        0.0000
      5 C           1.2466   -1.3256    3.3172 C.2     1  UNL1        0.0000
      6 C           0.8451   -1.8514    4.5785 C.2     1  UNL1        0.0000
      7 H           0.8689   -2.8957    4.8563 H       1  UNL1        0.0000
      8 C           0.2308   -0.8432    5.3218 C.2     1  UNL1        0.0000
      9 H          -0.2645   -0.9888    6.2715 H       1  UNL1        0.0000
     10 C           0.1901    0.3509    4.5413 C.3     1  UNL1        0.0000
     11 C          -0.2465   -2.0329    0.7372 C.3     1  UNL1        0.0000
     12 H          -0.2557   -2.6160   -0.1790 H       1  UNL1        0.0000
     13 H          -0.3954   -0.9925    0.4659 H       1  UNL1        0.0000
     14 H          -1.1022   -2.3386    1.3315 H       1  UNL1        0.0000
     15 C           1.5897   -4.1503    1.9966 C.3     1  UNL1        0.0000
     16 H           2.5101   -4.4265    2.5020 H       1  UNL1        0.0000
     17 H           1.5784   -4.6751    1.0468 H       1  UNL1        0.0000
     18 H           0.7649   -4.5361    2.5868 H       1  UNL1        0.0000
     19 C           2.8130   -1.6038    0.6006 C.3     1  UNL1        0.0000
     20 H           3.6683   -2.2722    0.5730 H       1  UNL1        0.0000
     21 H           3.1598   -0.6298    0.9362 H       1  UNL1        0.0000
     22 H           2.4687   -1.4859   -0.4218 H       1  UNL1        0.0000
     23 C          -0.5190    3.3518    5.7058 C.3     1  UNL1        0.0000
     24 H          -0.5206    3.2010    6.7801 H       1  UNL1        0.0000
     25 H          -1.2366    4.1395    5.4953 H       1  UNL1        0.0000
     26 H           0.4620    3.7178    5.4230 H       1  UNL1        0.0000
     27 C          -1.5488    2.3155    2.9846 C.3     1  UNL1        0.0000
     28 H          -0.7448    2.8376    2.4759 H       1  UNL1        0.0000
     29 H          -2.3969    2.9913    3.0252 H       1  UNL1        0.0000
     30 H          -1.8358    1.4667    2.3719 H       1  UNL1        0.0000
     31 C          -2.5669    1.0440    5.6246 C.3     1  UNL1        0.0000
     32 H          -2.3545    0.7871    6.6571 H       1  UNL1        0.0000
     33 H          -2.9222    0.1466    5.1285 H       1  UNL1        0.0000
     34 H          -3.3816    1.7604    5.6315 H       1  UNL1        0.0000
@<TRIPOS>BOND
     1    22    19    1
     2    12    11    1
     3    13    11    1
     4    20    19    1
     5    19    21    1
     6    19     1    1
     7    11    14    1
     8    11     1    1
     9    17    15    1
    10     1    15    1
    11     1     5    1
    12    15    16    1
    13    15    18    1
    14    30    27    1
    15     4     3    1
    16    28    27    1
    17    27    29    1
    18    27     2    1
    19     3     5    2
    20     3    10    1
    21     5     6    1
    22    10     2    1
    23    10     8    1
    24     6     7    1
    25     6     8    2
    26     2    31    1
    27     2    23    1
    28    33    31    1
    29     8     9    1
    30    26    23    1
    31    25    23    1
    32    31    34    1
    33    31    32    1
    34    23    24    1
