@<TRIPOS>MOLECULE
3,5,7,8,10
 34 34 0 0 0
SMALL
GASTEIGER

@<TRIPOS>ATOM
      1 SI          9.2593    2.2421    6.6750 Si      1  UNL1        0.0000
      2 SI          8.5046    5.4120   11.2555 Si      1  UNL1        0.0000
      3 C           7.5130    2.7710   10.3411 C.2     1  UNL1        0.0000
      4 H           7.2832    2.3808   11.3230 H       1  UNL1        0.0000
      5 C           7.7312    1.9858    9.2057 C.2     1  UNL1        0.0000
      6 H           7.6525    0.9079    9.1736 H       1  UNL1        0.0000
      7 C           8.2569    2.8101    8.1675 C.2     1  UNL1        0.0000
      8 C           8.3344    4.1159    8.7143 C.2     1  UNL1        0.0000
      9 H           8.8133    4.9619    8.2404 H       1  UNL1        0.0000
     10 C           7.8681    4.1205   10.0523 C.3     1  UNL1        0.0000
     11 C          10.6625    3.5242    6.4366 C.3     1  UNL1        0.0000
     12 H          11.3991    3.1606    5.7274 H       1  UNL1        0.0000
     13 H          11.1799    3.7342    7.3674 H       1  UNL1        0.0000
     14 H          10.2785    4.4626    6.0496 H       1  UNL1        0.0000
     15 C          10.0597    0.5697    7.1639 C.3     1  UNL1        0.0000
     16 H          10.7864    0.2610    6.4198 H       1  UNL1        0.0000
     17 H           9.3218   -0.2217    7.2419 H       1  UNL1        0.0000
     18 H          10.5734    0.6356    8.1177 H       1  UNL1        0.0000
     19 C           8.4136    2.0053    4.9760 C.3     1  UNL1        0.0000
     20 H           9.1792    1.9091    4.2115 H       1  UNL1        0.0000
     21 H           7.7813    2.8436    4.7047 H       1  UNL1        0.0000
     22 H           7.8077    1.1066    4.9320 H       1  UNL1        0.0000
     23 C           7.7769    7.1583   10.9377 C.3     1  UNL1        0.0000
     24 H           7.4046    7.2587    9.9214 H       1  UNL1        0.0000
     25 H           8.5473    7.9111   11.0714 H       1  UNL1        0.0000
     26 H           6.9678    7.4088   11.6172 H       1  UNL1        0.0000
     27 C           8.1927    4.8933   13.0743 C.3     1  UNL1        0.0000
     28 H           8.5993    3.9060   13.2688 H       1  UNL1        0.0000
     29 H           7.1442    4.8777   13.3573 H       1  UNL1        0.0000
     30 H           8.6920    5.5852   13.7451 H       1  UNL1        0.0000
     31 C          10.4002    5.5328   11.0323 C.3     1  UNL1        0.0000
     32 H          10.8719    4.5599   11.1302 H       1  UNL1        0.0000
     33 H          10.8468    6.1923   11.7706 H       1  UNL1        0.0000
     34 H          10.6551    5.9197   10.0507 H       1  UNL1        0.0000
@<TRIPOS>BOND
     1    20    19    1
     2    21    19    1
     3    22    19    1
     4    19     1    1
     5    12    11    1
     6    14    11    1
     7    16    15    1
     8    11     1    1
     9    11    13    1
    10     1    15    1
    11     1     7    1
    12    15    17    1
    13    15    18    1
    14     7     8    2
    15     7     5    1
    16     9     8    1
    17     8    10    1
    18     6     5    1
    19     5     3    2
    20    24    23    1
    21    34    31    1
    22    10     3    1
    23    10     2    1
    24     3     4    1
    25    23    25    1
    26    23     2    1
    27    23    26    1
    28    31    32    1
    29    31     2    1
    30    31    33    1
    31     2    27    1
    32    27    28    1
    33    27    29    1
    34    27    30    1
