@<TRIPOS>MOLECULE
3,5,7,8,10
 34 34 0 0 0
SMALL
GASTEIGER

@<TRIPOS>ATOM
      1 SI          1.5541    5.7076    9.8722 Si      1  UNL1        0.0000
      2 SI         -1.9491    4.6726   14.4846 Si      1  UNL1        0.0000
      3 C           0.3856    6.3095   13.7449 C.2     1  UNL1        0.0000
      4 H           0.3031    6.9425   14.6197 H       1  UNL1        0.0000
      5 C           1.2803    6.4736   12.6814 C.2     1  UNL1        0.0000
      6 H           2.0259    7.2542   12.5845 H       1  UNL1        0.0000
      7 C           0.9100    5.5853   11.6344 C.2     1  UNL1        0.0000
      8 C          -0.2190    4.8683   12.0951 C.2     1  UNL1        0.0000
      9 H          -0.8041    4.1771   11.5030 H       1  UNL1        0.0000
     10 C          -0.5420    5.2846   13.4083 C.3     1  UNL1        0.0000
     11 C           1.4790    7.5567    9.3662 C.3     1  UNL1        0.0000
     12 H           0.4806    7.9635    9.4919 H       1  UNL1        0.0000
     13 H           1.7569    7.6851    8.3250 H       1  UNL1        0.0000
     14 H           2.1551    8.1643    9.9595 H       1  UNL1        0.0000
     15 C           3.3805    5.1520    9.7484 C.3     1  UNL1        0.0000
     16 H           3.8104    5.4579    8.7996 H       1  UNL1        0.0000
     17 H           3.4806    4.0739    9.8245 H       1  UNL1        0.0000
     18 H           3.9841    5.5976   10.5365 H       1  UNL1        0.0000
     19 C           0.4490    4.7299    8.6615 C.3     1  UNL1        0.0000
     20 H          -0.5866    5.0486    8.7257 H       1  UNL1        0.0000
     21 H           0.4819    3.6627    8.8521 H       1  UNL1        0.0000
     22 H           0.7766    4.8886    7.6393 H       1  UNL1        0.0000
     23 C          -2.9904    6.1334   15.1513 C.3     1  UNL1        0.0000
     24 H          -3.4453    6.6939   14.3413 H       1  UNL1        0.0000
     25 H          -2.3864    6.8262   15.7284 H       1  UNL1        0.0000
     26 H          -3.7886    5.7802   15.7961 H       1  UNL1        0.0000
     27 C          -1.1979    3.7406   15.9884 C.3     1  UNL1        0.0000
     28 H          -1.9542    3.1642   16.5129 H       1  UNL1        0.0000
     29 H          -0.7694    4.4349   16.7065 H       1  UNL1        0.0000
     30 H          -0.4074    3.0533   15.6767 H       1  UNL1        0.0000
     31 C          -3.0790    3.4986   13.4885 C.3     1  UNL1        0.0000
     32 H          -3.5165    4.0060   12.6351 H       1  UNL1        0.0000
     33 H          -3.8949    3.1349   14.1042 H       1  UNL1        0.0000
     34 H          -2.5366    2.6344   13.1177 H       1  UNL1        0.0000
@<TRIPOS>BOND
     1    22    19    1
     2    13    11    1
     3    19    20    1
     4    19    21    1
     5    19     1    1
     6    16    15    1
     7    11    12    1
     8    11     1    1
     9    11    14    1
    10    15    17    1
    11    15     1    1
    12    15    18    1
    13     1     7    1
    14     9     8    1
    15     7     8    2
    16     7     5    1
    17     8    10    1
    18     6     5    1
    19    32    31    1
    20     5     3    2
    21    34    31    1
    22    10     3    1
    23    10     2    1
    24    31    33    1
    25    31     2    1
    26     3     4    1
    27    24    23    1
    28     2    23    1
    29     2    27    1
    30    23    25    1
    31    23    26    1
    32    30    27    1
    33    27    28    1
    34    27    29    1
