@<TRIPOS>MOLECULE
3,5,7,8,10
 34 34 0 0 0
SMALL
GASTEIGER

@<TRIPOS>ATOM
      1 SI          1.3539    3.1256    4.8025 Si      1  UNL1        0.0000
      2 SI          0.9037    7.4966    8.4603 Si      1  UNL1        0.0000
      3 C           2.2960    6.9899    5.8643 C.2     1  UNL1        0.0000
      4 H           2.4985    8.0288    5.6371 H       1  UNL1        0.0000
      5 C           2.4121    5.9140    4.9751 C.2     1  UNL1        0.0000
      6 H           2.6410    5.9970    3.9203 H       1  UNL1        0.0000
      7 C           1.8910    4.7412    5.5937 C.2     1  UNL1        0.0000
      8 C           1.4246    5.1515    6.8629 C.2     1  UNL1        0.0000
      9 H           0.8199    4.5446    7.5198 H       1  UNL1        0.0000
     10 C           1.6945    6.5221    7.0675 C.3     1  UNL1        0.0000
     11 C           2.5511    2.4774    3.4520 C.3     1  UNL1        0.0000
     12 H           2.1096    1.6151    2.9628 H       1  UNL1        0.0000
     13 H           3.5034    2.1587    3.8624 H       1  UNL1        0.0000
     14 H           2.7433    3.2161    2.6802 H       1  UNL1        0.0000
     15 C          -0.3265    3.4271    3.9301 C.3     1  UNL1        0.0000
     16 H          -0.7212    2.5088    3.5067 H       1  UNL1        0.0000
     17 H          -0.2346    4.1475    3.1230 H       1  UNL1        0.0000
     18 H          -1.0647    3.8134    4.6256 H       1  UNL1        0.0000
     19 C           1.1277    1.7814    6.1372 C.3     1  UNL1        0.0000
     20 H           0.9365    0.8154    5.6802 H       1  UNL1        0.0000
     21 H           0.2804    2.0063    6.7771 H       1  UNL1        0.0000
     22 H           2.0023    1.6802    6.7725 H       1  UNL1        0.0000
     23 C           1.1449    9.3790    8.2243 C.3     1  UNL1        0.0000
     24 H           0.7508    9.9228    9.0765 H       1  UNL1        0.0000
     25 H           0.6175    9.7291    7.3428 H       1  UNL1        0.0000
     26 H           2.1876    9.6534    8.1136 H       1  UNL1        0.0000
     27 C          -0.9816    7.1567    8.4139 C.3     1  UNL1        0.0000
     28 H          -1.5094    7.7684    9.1389 H       1  UNL1        0.0000
     29 H          -1.2001    6.1185    8.6423 H       1  UNL1        0.0000
     30 H          -1.4012    7.3703    7.4358 H       1  UNL1        0.0000
     31 C           1.5432    6.9100   10.1682 C.3     1  UNL1        0.0000
     32 H           0.7776    7.0424   10.9265 H       1  UNL1        0.0000
     33 H           2.4166    7.4624   10.5010 H       1  UNL1        0.0000
     34 H           1.8104    5.8555   10.1500 H       1  UNL1        0.0000
@<TRIPOS>BOND
     1    14    11    1
     2    12    11    1
     3    17    15    1
     4    11    13    1
     5    11     1    1
     6    16    15    1
     7     6     5    1
     8    15    18    1
     9    15     1    1
    10     1     7    1
    11     1    19    1
    12     5     7    1
    13     5     3    2
    14     7     8    2
    15     4     3    1
    16    20    19    1
    17     3    10    1
    18    19    22    1
    19    19    21    1
    20     8    10    1
    21     8     9    1
    22    10     2    1
    23    25    23    1
    24    30    27    1
    25    26    23    1
    26    23     2    1
    27    23    24    1
    28    27     2    1
    29    27    29    1
    30    27    28    1
    31     2    31    1
    32    34    31    1
    33    31    33    1
    34    31    32    1
