@<TRIPOS>MOLECULE
2,3,4,5,6
 44 45 0 0 0
SMALL
GASTEIGER

@<TRIPOS>ATOM
      1 SI         -8.4966    0.9333   14.2292 Si      1  UNL1        0.0000
      2 C          -4.8117    3.5089    9.9876 C.3     1  UNL1        0.0000
      3 C          -3.5181    4.0907   10.1997 C.2     1  UNL1        0.0000
      4 C          -3.0670    4.6105    8.9565 C.2     1  UNL1        0.0000
      5 C          -4.0457    4.3299    7.9736 C.2     1  UNL1        0.0000
      6 C          -5.1354    3.6722    8.6027 C.2     1  UNL1        0.0000
      7 C          -5.6824    2.9803   11.0434 C.ar    1  UNL1        0.0000
      8 C          -7.0296    3.3351   11.1228 C.ar    1  UNL1        0.0000
      9 H          -7.4285    4.0693   10.4386 H       1  UNL1        0.0000
     10 C          -7.8533    2.7640   12.0742 C.ar    1  UNL1        0.0000
     11 H          -8.8959    3.0445   12.1008 H       1  UNL1        0.0000
     12 C          -7.3750    1.8323   12.9905 C.ar    1  UNL1        0.0000
     13 C          -6.0148    1.5334   12.9460 C.ar    1  UNL1        0.0000
     14 H          -5.6015    0.8300   13.6541 H       1  UNL1        0.0000
     15 C          -5.1821    2.0955   12.0019 C.ar    1  UNL1        0.0000
     16 H          -4.1362    1.8159   11.9824 H       1  UNL1        0.0000
     17 C          -8.4622   -0.9243   13.7838 C.3     1  UNL1        0.0000
     18 H          -9.0372   -1.5139   14.4913 H       1  UNL1        0.0000
     19 H          -7.4453   -1.3053   13.7864 H       1  UNL1        0.0000
     20 H          -8.8768   -1.1017   12.7956 H       1  UNL1        0.0000
     21 C         -10.2820    1.5916   14.1261 C.3     1  UNL1        0.0000
     22 H         -10.7101    1.4345   13.1409 H       1  UNL1        0.0000
     23 H         -10.3279    2.6545   14.3429 H       1  UNL1        0.0000
     24 H         -10.9212    1.0854   14.8427 H       1  UNL1        0.0000
     25 C          -7.8189    1.1859   15.9950 C.3     1  UNL1        0.0000
     26 H          -7.8116    2.2360   16.2710 H       1  UNL1        0.0000
     27 H          -6.8014    0.8178   16.0833 H       1  UNL1        0.0000
     28 H          -8.4227    0.6577   16.7265 H       1  UNL1        0.0000
     29 C          -2.9493    4.5131   11.5257 C.3     1  UNL1        0.0000
     30 H          -1.8608    4.4950   11.5201 H       1  UNL1        0.0000
     31 H          -3.3136    3.8930   12.3410 H       1  UNL1        0.0000
     32 H          -3.2607    5.5422   11.7265 H       1  UNL1        0.0000
     33 C          -1.8543    5.4746    8.7833 C.3     1  UNL1        0.0000
     34 H          -2.0703    6.4856    9.1385 H       1  UNL1        0.0000
     35 H          -1.5626    5.5341    7.7372 H       1  UNL1        0.0000
     36 H          -1.0088    5.0866    9.3508 H       1  UNL1        0.0000
     37 C          -3.9952    4.7676    6.5392 C.3     1  UNL1        0.0000
     38 H          -4.3076    5.8111    6.4514 H       1  UNL1        0.0000
     39 H          -4.6558    4.1585    5.9247 H       1  UNL1        0.0000
     40 H          -2.9830    4.6803    6.1426 H       1  UNL1        0.0000
     41 C          -6.4370    3.3556    7.9229 C.3     1  UNL1        0.0000
     42 H          -6.9532    4.2853    7.6717 H       1  UNL1        0.0000
     43 H          -7.0849    2.7620    8.5633 H       1  UNL1        0.0000
     44 H          -6.2680    2.8047    6.9963 H       1  UNL1        0.0000
@<TRIPOS>BOND
     1    39    37    1
     2    40    37    1
     3    38    37    1
     4    37     5    1
     5    44    41    1
     6    42    41    1
     7    35    33    1
     8    41    43    1
     9    41     6    1
    10     5     6    2
    11     5     4    1
    12     6     2    1
    13    33     4    1
    14    33    34    1
    15    33    36    1
    16     4     3    2
    17     2     3    1
    18     2     7    1
    19     3    29    1
    20     9     8    1
    21     7     8   ar
    22     7    15   ar
    23     8    10   ar
    24    30    29    1
    25    29    32    1
    26    29    31    1
    27    16    15    1
    28    15    13   ar
    29    10    11    1
    30    10    12   ar
    31    20    17    1
    32    13    12   ar
    33    13    14    1
    34    12     1    1
    35    22    21    1
    36    17    19    1
    37    17     1    1
    38    17    18    1
    39    21     1    1
    40    21    23    1
    41    21    24    1
    42     1    25    1
    43    25    27    1
    44    25    26    1
    45    25    28    1
