@<TRIPOS>MOLECULE
1,2,3,4,5
 10 10 0 0 0
SMALL
GASTEIGER

@<TRIPOS>ATOM
      1 C          -1.8215    8.8761    6.1999 C.3     1  UNL1        0.0054
      2 C          -2.7726    8.2191    5.3879 C.2     1  UNL1       -0.0763
      3 C          -2.1808    7.0415    4.8895 C.2     1  UNL1       -0.0654
      4 C          -0.8667    6.9699    5.3842 C.2     1  UNL1       -0.0654
      5 C          -0.6358    8.1033    6.1856 C.2     1  UNL1       -0.0763
      6 H          -2.0237    9.7249    6.8360 H       1  UNL1        0.0394
      7 H          -3.8210    8.4686    5.3238 H       1  UNL1        0.0578
      8 H          -2.6963    6.2622    4.3426 H       1  UNL1        0.0615
      9 H          -0.1881    6.1340    5.2719 H       1  UNL1        0.0615
     10 H           0.2249    8.2531    6.8205 H       1  UNL1        0.0578
@<TRIPOS>BOND
     1     8     3    1
     2     3     4    1
     3     3     2    2
     4     9     4    1
     5     7     2    1
     6     4     5    2
     7     2     1    1
     8     5     1    1
     9     5    10    1
    10     1     6    1
