@<TRIPOS>MOLECULE
1,2,3,4,5
 10 10 0 0 0
SMALL
GASTEIGER

@<TRIPOS>ATOM
      1 C           0.7086    8.9120    1.9445 C.2     1  UNL1       -0.0763
      2 C           0.7446    7.6768    2.6281 C.3     1  UNL1        0.0054
      3 C          -0.5010    7.0489    2.4422 C.2     1  UNL1       -0.0763
      4 C          -1.3290    7.9168    1.7057 C.2     1  UNL1       -0.0654
      5 C          -0.5693    9.0663    1.3816 C.2     1  UNL1       -0.0654
      6 H           1.5550    9.5535    1.7481 H       1  UNL1        0.0578
      7 H           1.6249    7.2237    3.0706 H       1  UNL1        0.0394
      8 H          -0.7339    6.0246    2.6987 H       1  UNL1        0.0578
      9 H          -2.2984    7.6620    1.2978 H       1  UNL1        0.0615
     10 H          -0.8592    9.8536    0.6993 H       1  UNL1        0.0615
@<TRIPOS>BOND
     1    10     5    1
     2     9     4    1
     3     5     4    1
     4     5     1    2
     5     4     3    2
     6     6     1    1
     7     1     2    1
     8     3     2    1
     9     3     8    1
    10     2     7    1
