@<TRIPOS>MOLECULE
1,2,3,4,5
 10 10 0 0 0
SMALL
GASTEIGER

@<TRIPOS>ATOM
      1 C           4.6688    4.1166    5.6658 C.2     1  UNL1       -0.0837
      2 C           5.5669    3.3115    4.9273 C.3     1  UNL1       -0.0127
      3 C           4.9864    2.0323    4.7946 C.3     1  UNL1       -0.0235
      4 C           3.7205    2.0670    5.3956 C.3     1  UNL1       -0.0127
      5 C           3.5208    3.3556    5.9261 C.2     1  UNL1       -0.0837
      6 H           4.9003    5.0739    6.1064 H       1  UNL1        0.0572
      7 H           3.0833    1.2093    5.5546 H       1  UNL1        0.0352
      8 H           2.6989    3.6652    6.5558 H       1  UNL1        0.0572
      9 H           5.4852    1.1369    4.4512 H       1  UNL1        0.0315
     10 H           6.5793    3.5909    4.6685 H       1  UNL1        0.0352
@<TRIPOS>BOND
     1     9     3    1
     2    10     2    1
     3     3     2    1
     4     3     4    1
     5     2     1    1
     6     4     7    1
     7     4     5    1
     8     1     5    2
     9     1     6    1
    10     5     8    1
