@<TRIPOS>MOLECULE
1,3,5,7,9
 10 10 0 0 0
SMALL
GASTEIGER

@<TRIPOS>ATOM
      1 C           5.8237    4.7342    4.5464 C.3     1  UNL1        0.0054
      2 H           5.5729    4.3459    5.5247 H       1  UNL1        0.0394
      3 C           6.2711    3.9506    3.4592 C.2     1  UNL1       -0.0763
      4 H           6.4661    2.8903    3.4893 H       1  UNL1        0.0578
      5 C           6.6421    4.8186    2.4231 C.2     1  UNL1       -0.0654
      6 H           7.1110    4.5176    1.4965 H       1  UNL1        0.0615
      7 C           6.4787    6.1401    2.8811 C.2     1  UNL1       -0.0654
      8 H           6.8062    7.0338    2.3691 H       1  UNL1        0.0615
      9 C           5.9887    6.0914    4.1926 C.2     1  UNL1       -0.0763
     10 H           5.9105    6.9390    4.8597 H       1  UNL1        0.0578
@<TRIPOS>BOND
     1     6     5    1
     2     8     7    1
     3     5     7    1
     4     5     3    2
     5     7     9    2
     6     3     4    1
     7     3     1    1
     8     9     1    1
     9     9    10    1
    10     1     2    1
