@<TRIPOS>MOLECULE
1,2,3,4,5
 10 10 0 0 0
SMALL
GASTEIGER

@<TRIPOS>ATOM
      1 C           2.2230    3.9417    1.9217 C.3     1  UNL1       -0.0127
      2 C           1.7366    4.6502    3.0452 C.2     1  UNL1       -0.0837
      3 C           1.4317    3.7163    4.0452 C.2     1  UNL1       -0.0837
      4 C           1.6839    2.4292    3.5336 C.3     1  UNL1       -0.0127
      5 C           2.1535    2.5648    2.2198 C.3     1  UNL1       -0.0235
      6 H           2.2677    1.7523    1.5160 H       1  UNL1        0.0315
      7 H           1.4742    5.6966    3.0628 H       1  UNL1        0.0572
      8 H           1.4182    1.4941    4.0047 H       1  UNL1        0.0352
      9 H           0.9464    3.9443    4.9835 H       1  UNL1        0.0572
     10 H           2.4445    4.3825    0.9589 H       1  UNL1        0.0352
@<TRIPOS>BOND
     1    10     1    1
     2     6     5    1
     3     1     5    1
     4     1     2    1
     5     5     4    1
     6     2     7    1
     7     2     3    2
     8     4     8    1
     9     4     3    1
    10     3     9    1
