@<TRIPOS>MOLECULE
1,3,5,7,9
 10 10 0 0 0
SMALL
GASTEIGER

@<TRIPOS>ATOM
      1 C           4.3742    6.6980    1.1146 C.3     1  UNL1       -0.0127
      2 H           5.0113    7.5632    1.0033 H       1  UNL1        0.0352
      3 C           3.0918    6.7106    1.6776 C.2     1  UNL1       -0.0837
      4 H           2.5799    7.5937    2.0330 H       1  UNL1        0.0572
      5 C           2.5231    5.4338    1.4992 C.2     1  UNL1       -0.0837
      6 H           1.5060    5.1463    1.7365 H       1  UNL1        0.0572
      7 C           3.4439    4.6518    0.7616 C.3     1  UNL1       -0.0127
      8 H           3.2349    3.7077    0.2829 H       1  UNL1        0.0352
      9 C           4.5921    5.4271    0.5487 C.3     1  UNL1       -0.0235
     10 H           5.4299    5.1427   -0.0719 H       1  UNL1        0.0315
@<TRIPOS>BOND
     1    10     9    1
     2     8     7    1
     3     9     7    1
     4     9     1    1
     5     7     5    1
     6     2     1    1
     7     1     3    1
     8     5     3    2
     9     5     6    1
    10     3     4    1
