@<TRIPOS>MOLECULE
5,18,19,32,33
 39 40 0 0 0
SMALL
GASTEIGER

@<TRIPOS>ATOM
      1 SI          3.4942    9.3425    5.3402 Si      1  UNL1        0.0000
      2 SI          2.3814   12.1013   10.3747 Si      1  UNL1        0.0000
      3 O           4.2008   10.3260    8.3680 O.2     1  UNL1        0.0000
      4 O          -0.3261   12.6485    6.0564 O.3     1  UNL1        0.0000
      5 C           2.4985   10.2958    6.6224 C.3     1  UNL1        0.0000
      6 C           5.2690   10.0391    5.3308 C.3     1  UNL1        0.0000
      7 H           5.6550   10.0838    6.3435 H       1  UNL1        0.0000
      8 H           5.3071   11.0432    4.9179 H       1  UNL1        0.0000
      9 H           5.9347    9.4139    4.7435 H       1  UNL1        0.0000
     10 C           3.4857    7.5009    5.8251 C.3     1  UNL1        0.0000
     11 H           3.9242    6.8707    5.0575 H       1  UNL1        0.0000
     12 H           2.4724    7.1525    6.0024 H       1  UNL1        0.0000
     13 H           4.0470    7.3461    6.7409 H       1  UNL1        0.0000
     14 C           2.7397    9.5712    3.6012 C.3     1  UNL1        0.0000
     15 H           3.3229    9.0253    2.8669 H       1  UNL1        0.0000
     16 H           2.7255   10.6131    3.2980 H       1  UNL1        0.0000
     17 H           1.7249    9.1966    3.5567 H       1  UNL1        0.0000
     18 C           3.1091   10.6571    7.9352 C.2     1  UNL1        0.0000
     19 C           2.0638   11.4423    8.6420 C.3     1  UNL1        0.0000
     20 C           2.7222   10.6062   11.5001 C.3     1  UNL1        0.0000
     21 H           1.8454    9.9706   11.5842 H       1  UNL1        0.0000
     22 H           3.0177   10.9041   12.5011 H       1  UNL1        0.0000
     23 H           3.5223   10.0072   11.0775 H       1  UNL1        0.0000
     24 C           3.8837   13.2728   10.2832 C.3     1  UNL1        0.0000
     25 H           4.7318   12.7506    9.8523 H       1  UNL1        0.0000
     26 H           4.1717   13.6240   11.2692 H       1  UNL1        0.0000
     27 H           3.6807   14.1443    9.6672 H       1  UNL1        0.0000
     28 C           0.8260   13.0471   10.9502 C.3     1  UNL1        0.0000
     29 H           0.6286   13.9144   10.3286 H       1  UNL1        0.0000
     30 H           0.9445   13.3958   11.9701 H       1  UNL1        0.0000
     31 H          -0.0530   12.4116   10.9216 H       1  UNL1        0.0000
     32 C           1.1211   11.8459    7.6658 C.3     1  UNL1        0.0000
     33 C           1.4060   11.1665    6.4466 C.3     1  UNL1        0.0000
     34 C           0.5903   11.7986    5.3674 C.3     1  UNL1        0.0000
     35 H           1.2431   12.3956    4.7097 H       1  UNL1        0.0000
     36 H           0.0078   11.1087    4.7555 H       1  UNL1        0.0000
     37 C           0.1827   12.9680    7.3513 C.3     1  UNL1        0.0000
     38 H          -0.6686   13.0843    8.0241 H       1  UNL1        0.0000
     39 H           0.7375   13.9210    7.3187 H       1  UNL1        0.0000
@<TRIPOS>BOND
     1    15    14    1
     2    16    14    1
     3    17    14    1
     4    14     1    1
     5    35    34    1
     6     9     6    1
     7    36    34    1
     8     8     6    1
     9    11    10    1
    10     6     1    1
    11     6     7    1
    12     1    10    1
    13     1     5    1
    14    34     4    1
    15    34    33    1
    16    10    12    1
    17    10    13    1
    18     4    37    1
    19    33     5    1
    20    33    32    1
    21     5    18    1
    22    39    37    1
    23    37    32    1
    24    37    38    1
    25    32    19    1
    26    18     3    2
    27    18    19    1
    28    19     2    1
    29    27    24    1
    30    25    24    1
    31    24     2    1
    32    24    26    1
    33    29    28    1
    34     2    28    1
    35     2    20    1
    36    31    28    1
    37    28    30    1
    38    23    20    1
    39    20    21    1
    40    20    22    1
