@<TRIPOS>MOLECULE
5,18,19,32,33
 39 40 0 0 0
SMALL
GASTEIGER

@<TRIPOS>ATOM
      1 SI         13.1430    8.9901    9.2171 Si      1  UNL1        0.0000
      2 SI          7.6306    8.4587    7.3592 Si      1  UNL1        0.0000
      3 O          10.2693   10.1373    8.2804 O.2     1  UNL1        0.0000
      4 O          10.4197    4.6354    9.2466 O.3     1  UNL1        0.0000
      5 C          11.5733    8.1240    8.6487 C.3     1  UNL1        0.0000
      6 C          14.4297    7.6739    9.7214 C.3     1  UNL1        0.0000
      7 H          14.6653    7.0172    8.8908 H       1  UNL1        0.0000
      8 H          14.0777    7.0579   10.5426 H       1  UNL1        0.0000
      9 H          15.3536    8.1450   10.0384 H       1  UNL1        0.0000
     10 C          12.6976   10.0946   10.7062 C.3     1  UNL1        0.0000
     11 H          13.5404   10.7066   11.0117 H       1  UNL1        0.0000
     12 H          12.3846    9.5084   11.5655 H       1  UNL1        0.0000
     13 H          11.8802   10.7568   10.4398 H       1  UNL1        0.0000
     14 C          13.7714   10.0098    7.7384 C.3     1  UNL1        0.0000
     15 H          14.0053    9.3632    6.8970 H       1  UNL1        0.0000
     16 H          14.6585   10.5864    7.9803 H       1  UNL1        0.0000
     17 H          12.9991   10.7011    7.4171 H       1  UNL1        0.0000
     18 C          10.3729    8.9217    8.2860 C.2     1  UNL1        0.0000
     19 C           9.3686    7.9157    7.8362 C.3     1  UNL1        0.0000
     20 C           6.4614    6.9547    7.4316 C.3     1  UNL1        0.0000
     21 H           5.4723    7.2229    7.0758 H       1  UNL1        0.0000
     22 H           6.3515    6.5694    8.4402 H       1  UNL1        0.0000
     23 H           6.8265    6.1467    6.8101 H       1  UNL1        0.0000
     24 C           7.0576    9.7705    8.6192 C.3     1  UNL1        0.0000
     25 H           7.8086   10.5477    8.7127 H       1  UNL1        0.0000
     26 H           6.9013    9.3414    9.6049 H       1  UNL1        0.0000
     27 H           6.1272   10.2362    8.3089 H       1  UNL1        0.0000
     28 C           7.6665    9.1842    5.5987 C.3     1  UNL1        0.0000
     29 H           8.1082    8.4817    4.8987 H       1  UNL1        0.0000
     30 H           8.2612   10.0915    5.5694 H       1  UNL1        0.0000
     31 H           6.6716    9.4296    5.2399 H       1  UNL1        0.0000
     32 C           9.8036    6.6738    8.3479 C.3     1  UNL1        0.0000
     33 C          11.1380    6.7865    8.8240 C.3     1  UNL1        0.0000
     34 C          11.4472    5.5558    9.6161 C.3     1  UNL1        0.0000
     35 H          12.4103    5.0843    9.4101 H       1  UNL1        0.0000
     36 H          11.3900    5.7793   10.6947 H       1  UNL1        0.0000
     37 C           9.2729    5.3455    8.7738 C.3     1  UNL1        0.0000
     38 H           8.5452    5.4774    9.5908 H       1  UNL1        0.0000
     39 H           8.8104    4.7520    7.9847 H       1  UNL1        0.0000
@<TRIPOS>BOND
     1    29    28    1
     2    31    28    1
     3    30    28    1
     4    28     2    1
     5    23    20    1
     6    15    14    1
     7    21    20    1
     8     2    20    1
     9     2    19    1
    10     2    24    1
    11    17    14    1
    12    20    22    1
    13    14    16    1
    14    14     1    1
    15    19    18    1
    16    19    32    1
    17    39    37    1
    18     3    18    2
    19    18     5    1
    20    27    24    1
    21    32    37    1
    22    32    33    1
    23    24    25    1
    24    24    26    1
    25     5    33    1
    26     5     1    1
    27    37     4    1
    28    37    38    1
    29    33    34    1
    30     7     6    1
    31     1     6    1
    32     1    10    1
    33     4    34    1
    34    35    34    1
    35    34    36    1
    36     6     9    1
    37     6     8    1
    38    13    10    1
    39    10    11    1
    40    10    12    1
