@<TRIPOS>MOLECULE
3,5,7,8,10
 34 34 0 0 0
SMALL
GASTEIGER

@<TRIPOS>ATOM
      1 SI         -0.3341    4.1052    2.7655 Si      1  UNL1        0.0000
      2 SI          3.0913   -0.6254    2.7303 Si      1  UNL1        0.0000
      3 C           1.7413    1.1167    4.6892 C.2     1  UNL1        0.0000
      4 H           1.8545    0.4026    5.4967 H       1  UNL1        0.0000
      5 C           0.8504    2.1935    4.6860 C.3     1  UNL1        0.0000
      6 H           0.2317    2.5090    5.5149 H       1  UNL1        0.0000
      7 C           0.7753    2.7188    3.3683 C.2     1  UNL1        0.0000
      8 C           1.6052    1.9031    2.5639 C.2     1  UNL1        0.0000
      9 H           1.6632    1.9621    1.4863 H       1  UNL1        0.0000
     10 C           2.2307    0.9165    3.3644 C.2     1  UNL1        0.0000
     11 C          -2.0558    3.9331    3.5879 C.3     1  UNL1        0.0000
     12 H          -2.7161    4.7407    3.2877 H       1  UNL1        0.0000
     13 H          -1.9853    3.9476    4.6707 H       1  UNL1        0.0000
     14 H          -2.5308    2.9995    3.3046 H       1  UNL1        0.0000
     15 C          -0.5425    3.9615    0.8691 C.3     1  UNL1        0.0000
     16 H          -1.2316    4.7150    0.5022 H       1  UNL1        0.0000
     17 H          -0.9410    2.9920    0.5892 H       1  UNL1        0.0000
     18 H           0.3995    4.0965    0.3467 H       1  UNL1        0.0000
     19 C           0.3710    5.8478    3.1753 C.3     1  UNL1        0.0000
     20 H          -0.3634    6.4665    3.6842 H       1  UNL1        0.0000
     21 H           0.6711    6.3814    2.2782 H       1  UNL1        0.0000
     22 H           1.2491    5.7544    3.8151 H       1  UNL1        0.0000
     23 C           2.3619   -2.1280    3.6761 C.3     1  UNL1        0.0000
     24 H           2.7198   -3.0612    3.2538 H       1  UNL1        0.0000
     25 H           1.2779   -2.1400    3.6271 H       1  UNL1        0.0000
     26 H           2.6417   -2.1219    4.7254 H       1  UNL1        0.0000
     27 C           4.9872   -0.6854    2.9935 C.3     1  UNL1        0.0000
     28 H           5.3936   -1.5758    2.5235 H       1  UNL1        0.0000
     29 H           5.2546   -0.7323    4.0454 H       1  UNL1        0.0000
     30 H           5.4856    0.1722    2.5541 H       1  UNL1        0.0000
     31 C           2.7220   -0.8397    0.8700 C.3     1  UNL1        0.0000
     32 H           3.0947   -1.7933    0.5101 H       1  UNL1        0.0000
     33 H           3.1978   -0.0617    0.2826 H       1  UNL1        0.0000
     34 H           1.6564   -0.8056    0.6670 H       1  UNL1        0.0000
@<TRIPOS>BOND
     1    33    31    1
     2    18    15    1
     3    16    15    1
     4    32    31    1
     5    17    15    1
     6    34    31    1
     7    15     1    1
     8    31     2    1
     9     9     8    1
    10    21    19    1
    11    28    27    1
    12    30    27    1
    13     8    10    1
    14     8     7    2
    15     2    27    1
    16     2    10    1
    17     2    23    1
    18     1    19    1
    19     1     7    1
    20     1    11    1
    21    27    29    1
    22    19    20    1
    23    19    22    1
    24    24    23    1
    25    12    11    1
    26    14    11    1
    27    10     3    2
    28     7     5    1
    29    11    13    1
    30    25    23    1
    31    23    26    1
    32     5     3    1
    33     5     6    1
    34     3     4    1
