@<TRIPOS>MOLECULE
3,5,7,8,10
 34 34 0 0 0
SMALL
GASTEIGER

@<TRIPOS>ATOM
      1 SI         14.0729   10.8261   14.4707 Si      1  UNL1        0.0000
      2 SI         11.6772    6.2245   12.1013 Si      1  UNL1        0.0000
      3 C          13.7349    8.2091   11.3469 C.2     1  UNL1        0.0000
      4 H          14.1826    7.5861   10.5830 H       1  UNL1        0.0000
      5 C          14.3207    9.3456   11.9063 C.2     1  UNL1        0.0000
      6 H          15.3157    9.7054   11.6807 H       1  UNL1        0.0000
      7 C          13.5237    9.7963   12.9975 C.2     1  UNL1        0.0000
      8 C          12.4568    8.8759   13.1016 C.2     1  UNL1        0.0000
      9 H          11.7681    8.8443   13.9339 H       1  UNL1        0.0000
     10 C          12.5467    7.8949   12.0749 C.3     1  UNL1        0.0000
     11 C          15.7166   11.7593   14.1462 C.3     1  UNL1        0.0000
     12 H          16.2197   11.9415   15.0903 H       1  UNL1        0.0000
     13 H          15.5695   12.7264   13.6752 H       1  UNL1        0.0000
     14 H          16.4013   11.1844   13.5306 H       1  UNL1        0.0000
     15 C          14.3807    9.6112   15.9155 C.3     1  UNL1        0.0000
     16 H          14.7207   10.1314   16.8059 H       1  UNL1        0.0000
     17 H          15.1346    8.8740   15.6564 H       1  UNL1        0.0000
     18 H          13.4757    9.0715   16.1761 H       1  UNL1        0.0000
     19 C          12.7554   12.0924   15.0330 C.3     1  UNL1        0.0000
     20 H          12.9996   12.4652   16.0228 H       1  UNL1        0.0000
     21 H          11.7686   11.6432   15.0886 H       1  UNL1        0.0000
     22 H          12.6883   12.9544   14.3757 H       1  UNL1        0.0000
     23 C          12.8400    4.9610   11.2532 C.3     1  UNL1        0.0000
     24 H          12.4285    3.9592   11.3182 H       1  UNL1        0.0000
     25 H          13.8191    4.9428   11.7208 H       1  UNL1        0.0000
     26 H          12.9819    5.1841   10.2000 H       1  UNL1        0.0000
     27 C           9.9606    6.0811   11.2673 C.3     1  UNL1        0.0000
     28 H           9.2851    6.8780   11.5618 H       1  UNL1        0.0000
     29 H           9.5025    5.1396   11.5560 H       1  UNL1        0.0000
     30 H          10.0229    6.0816   10.1830 H       1  UNL1        0.0000
     31 C          11.4556    5.7495   13.9424 C.3     1  UNL1        0.0000
     32 H          10.6952    6.3615   14.4171 H       1  UNL1        0.0000
     33 H          12.3766    5.8721   14.5035 H       1  UNL1        0.0000
     34 H          11.1456    4.7144   14.0409 H       1  UNL1        0.0000
@<TRIPOS>BOND
     1    30    27    1
     2    26    23    1
     3     4     3    1
     4    23    24    1
     5    23    25    1
     6    23     2    1
     7    27    29    1
     8    27    28    1
     9    27     2    1
    10     3     5    2
    11     3    10    1
    12     6     5    1
    13     5     7    1
    14    10     2    1
    15    10     8    1
    16     2    31    1
    17     7     8    2
    18     7     1    1
    19     8     9    1
    20    14    11    1
    21    13    11    1
    22    31    34    1
    23    31    32    1
    24    31    33    1
    25    11     1    1
    26    11    12    1
    27    22    19    1
    28     1    19    1
    29     1    15    1
    30    19    21    1
    31    19    20    1
    32    17    15    1
    33    15    18    1
    34    15    16    1
