@<TRIPOS>MOLECULE
2,3,4,5,6
 34 35 0 0 0
SMALL
GASTEIGER

@<TRIPOS>ATOM
      1 SI          1.9790    3.1960   -0.2565 Si      1  UNL1        0.0000
      2 C          -1.3795    1.4027   -1.8763 C.ar    1  UNL1        0.0000
      3 C           0.0186    1.7115   -1.8852 C.3     1  UNL1        0.0000
      4 C           0.3403    2.3170   -0.6246 C.3     1  UNL1        0.0000
      5 C          -0.8189    2.2803    0.2008 C.3     1  UNL1        0.0000
      6 C          -1.8968    1.7494   -0.5694 C.ar    1  UNL1        0.0000
      7 C          -3.2793    1.6544   -0.3194 C.ar    1  UNL1        0.0000
      8 H          -3.6766    1.9122    0.6521 H       1  UNL1        0.0000
      9 C          -4.1192    1.2802   -1.3377 C.ar    1  UNL1        0.0000
     10 H          -5.1834    1.2282   -1.1656 H       1  UNL1        0.0000
     11 C          -3.6241    0.9891   -2.6220 C.ar    1  UNL1        0.0000
     12 H          -4.3229    0.7383   -3.4062 H       1  UNL1        0.0000
     13 C          -2.2813    1.0429   -2.8981 C.ar    1  UNL1        0.0000
     14 H          -1.9270    0.8687   -3.9048 H       1  UNL1        0.0000
     15 C           0.8403    1.8218   -3.1404 C.3     1  UNL1        0.0000
     16 H           0.7177    2.8177   -3.5736 H       1  UNL1        0.0000
     17 H           0.5079    1.1028   -3.8879 H       1  UNL1        0.0000
     18 H           1.9004    1.6666   -2.9495 H       1  UNL1        0.0000
     19 C          -0.9485    2.8140    1.5979 C.3     1  UNL1        0.0000
     20 H          -0.9693    3.9057    1.5958 H       1  UNL1        0.0000
     21 H          -0.1151    2.4861    2.2204 H       1  UNL1        0.0000
     22 H          -1.8730    2.4572    2.0512 H       1  UNL1        0.0000
     23 C           3.4135    2.0048   -0.6920 C.3     1  UNL1        0.0000
     24 H           4.1227    1.9502    0.1272 H       1  UNL1        0.0000
     25 H           3.9611    2.3260   -1.5731 H       1  UNL1        0.0000
     26 H           3.0503    0.9923   -0.8640 H       1  UNL1        0.0000
     27 C           2.2178    3.8763    1.5097 C.3     1  UNL1        0.0000
     28 H           3.1792    4.3782    1.5661 H       1  UNL1        0.0000
     29 H           2.2170    3.0867    2.2523 H       1  UNL1        0.0000
     30 H           1.4578    4.6017    1.7790 H       1  UNL1        0.0000
     31 C           2.0436    4.7218   -1.4155 C.3     1  UNL1        0.0000
     32 H           2.8903    5.3478   -1.1559 H       1  UNL1        0.0000
     33 H           1.1487    5.3292   -1.3269 H       1  UNL1        0.0000
     34 H           2.1519    4.4478   -2.4588 H       1  UNL1        0.0000
@<TRIPOS>BOND
     1    14    13    1
     2    17    15    1
     3    16    15    1
     4    12    11    1
     5    15    18    1
     6    15     3    1
     7    13    11   ar
     8    13     2   ar
     9    11     9   ar
    10    34    31    1
    11     3     2    1
    12     3     4    1
    13     2     6   ar
    14    25    23    1
    15    31    33    1
    16    31    32    1
    17    31     1    1
    18     9    10    1
    19     9     7   ar
    20    26    23    1
    21    23     1    1
    22    23    24    1
    23     4     1    1
    24     4     5    1
    25     6     7   ar
    26     6     5    1
    27     7     8    1
    28     1    27    1
    29     5    19    1
    30    27    28    1
    31    27    30    1
    32    27    29    1
    33    20    19    1
    34    19    22    1
    35    19    21    1
