@<TRIPOS>MOLECULE
1,2,3,4,5
 25 25 0 0 0
SMALL
GASTEIGER

@<TRIPOS>ATOM
      1 C           1.5764    2.2299    4.9952 C.2     1  UNL1       -0.0477
      2 C           0.4233    2.0228    5.8296 C.2     1  UNL1       -0.0584
      3 C          -0.5819    1.3829    5.0501 C.3     1  UNL1        0.0231
      4 C          -0.0478    1.1533    3.7348 C.2     1  UNL1       -0.0584
      5 C           1.2854    1.6549    3.7107 C.2     1  UNL1       -0.0477
      6 C           2.9627    2.5086    5.5082 C.3     1  UNL1       -0.0395
      7 H           3.4327    1.5716    5.8191 H       1  UNL1        0.0278
      8 H           2.9418    3.1751    6.3674 H       1  UNL1        0.0278
      9 H           3.5906    2.9585    4.7416 H       1  UNL1        0.0278
     10 C           0.3814    2.1926    7.3184 C.3     1  UNL1       -0.0424
     11 H          -0.6167    2.4575    7.6609 H       1  UNL1        0.0275
     12 H           1.0707    2.9655    7.6486 H       1  UNL1        0.0275
     13 H           0.6662    1.2528    7.7981 H       1  UNL1        0.0275
     14 C          -1.8517    0.7851    5.5807 C.3     1  UNL1       -0.0510
     15 H          -1.6711   -0.2483    5.8873 H       1  UNL1        0.0242
     16 H          -2.6355    0.7802    4.8249 H       1  UNL1        0.0242
     17 H          -2.2155    1.3363    6.4458 H       1  UNL1        0.0242
     18 C          -0.6749    0.2786    2.6892 C.3     1  UNL1       -0.0424
     19 H          -0.3048    0.5245    1.6957 H       1  UNL1        0.0275
     20 H          -1.7586    0.3819    2.6846 H       1  UNL1        0.0275
     21 H          -0.4354   -0.7681    2.8928 H       1  UNL1        0.0275
     22 C           2.2905    1.3948    2.6279 C.3     1  UNL1       -0.0395
     23 H           2.7502    0.4167    2.7887 H       1  UNL1        0.0278
     24 H           3.0781    2.1445    2.6273 H       1  UNL1        0.0278
     25 H           1.8244    1.3919    1.6447 H       1  UNL1        0.0278
@<TRIPOS>BOND
     1    25    22    1
     2    19    18    1
     3    24    22    1
     4    22    23    1
     5    22     5    1
     6    20    18    1
     7    18    21    1
     8    18     4    1
     9     5     4    2
    10     5     1    1
    11     4     3    1
    12     9     6    1
    13    16    14    1
    14     1     6    1
    15     1     2    2
    16     3    14    1
    17     3     2    1
    18     6     7    1
    19     6     8    1
    20    14    15    1
    21    14    17    1
    22     2    10    1
    23    10    12    1
    24    10    11    1
    25    10    13    1
