@<TRIPOS>MOLECULE
1,2,3,4,5
 25 25 0 0 0
SMALL
GASTEIGER

@<TRIPOS>ATOM
      1 C           3.4676    4.9836   13.2202 C.2     1  UNL1       -0.0477
      2 C           3.2198    4.6910   11.8473 C.2     1  UNL1       -0.0477
      3 C           1.8938    4.1885   11.7333 C.2     1  UNL1       -0.0584
      4 C           1.3273    4.1351   13.0465 C.3     1  UNL1        0.0231
      5 C           2.2961    4.6230   13.9626 C.2     1  UNL1       -0.0584
      6 C           4.8190    5.2624   13.8011 C.3     1  UNL1       -0.0395
      7 H           5.4272    4.3557   13.7770 H       1  UNL1        0.0278
      8 H           4.7415    5.5836   14.8362 H       1  UNL1        0.0278
      9 H           5.3427    6.0294   13.2358 H       1  UNL1        0.0278
     10 C           4.2394    4.7206   10.7557 C.3     1  UNL1       -0.0395
     11 H           5.0285    5.4304   10.9829 H       1  UNL1        0.0278
     12 H           3.7899    4.9972    9.8062 H       1  UNL1        0.0278
     13 H           4.6903    3.7326   10.6434 H       1  UNL1        0.0278
     14 C           1.2717    3.6140   10.5007 C.3     1  UNL1       -0.0424
     15 H           1.3691    2.5269   10.5011 H       1  UNL1        0.0275
     16 H           1.7556    3.9985    9.6070 H       1  UNL1        0.0275
     17 H           0.2127    3.8564   10.4498 H       1  UNL1        0.0275
     18 C           0.0115    3.5182   13.3991 C.3     1  UNL1       -0.0510
     19 H          -0.7120    3.6684   12.6022 H       1  UNL1        0.0242
     20 H          -0.3886    3.9531   14.3114 H       1  UNL1        0.0242
     21 H           0.1274    2.4440   13.5545 H       1  UNL1        0.0242
     22 C           2.1740    4.5911   15.4532 C.3     1  UNL1       -0.0424
     23 H           1.1488    4.7769   15.7615 H       1  UNL1        0.0275
     24 H           2.8049    5.3446   15.9154 H       1  UNL1        0.0275
     25 H           2.4711    3.6119   15.8326 H       1  UNL1        0.0275
@<TRIPOS>BOND
     1    16    14    1
     2    12    10    1
     3    17    14    1
     4    14    15    1
     5    14     3    1
     6    13    10    1
     7    10    11    1
     8    10     2    1
     9     3     2    2
    10     3     4    1
    11     2     1    1
    12    19    18    1
    13     4    18    1
    14     4     5    1
    15     1     6    1
    16     1     5    2
    17     9     6    1
    18    18    21    1
    19    18    20    1
    20     7     6    1
    21     6     8    1
    22     5    22    1
    23    22    23    1
    24    22    25    1
    25    22    24    1
