@<TRIPOS>MOLECULE
1,2,3,4,5
 10 10 0 0 0
SMALL
GASTEIGER

@<TRIPOS>ATOM
      1 C           9.4861   15.4664   -2.3175 C.3     1  UNL1       -0.0127
      2 C           9.9370   16.7260   -1.8328 C.2     1  UNL1       -0.0837
      3 C           8.8077   17.5355   -1.6184 C.2     1  UNL1       -0.0837
      4 C           7.6579   16.7643   -1.8680 C.3     1  UNL1       -0.0127
      5 C           8.0777   15.4917   -2.3418 C.3     1  UNL1       -0.0235
      6 H          10.1124   14.6900   -2.7275 H       1  UNL1        0.0352
      7 H          10.9630   17.0540   -1.7967 H       1  UNL1        0.0572
      8 H           8.8244   18.5648   -1.3014 H       1  UNL1        0.0572
      9 H           6.6438   17.1286   -1.8719 H       1  UNL1        0.0352
     10 H           7.4378   14.7348   -2.7645 H       1  UNL1        0.0315
@<TRIPOS>BOND
     1    10     5    1
     2     6     1    1
     3     5     1    1
     4     5     4    1
     5     1     2    1
     6     9     4    1
     7     4     3    1
     8     2     7    1
     9     2     3    2
    10     3     8    1
