@<TRIPOS>MOLECULE
6,7,8,15,16
 40 41 0 0 0
SMALL
GASTEIGER

@<TRIPOS>ATOM
      1 SI          3.3120    1.6997   20.8700 Si      1  UNL1        0.0000
      2 SI          0.8347    1.1091   15.5817 Si      1  UNL1        0.0000
      3 O           1.7856    2.8746   18.1049 O.2     1  UNL1        0.0000
      4 H           1.9483    3.3440   18.9325 H       1  UNL1        0.0000
      5 O           2.6635   -2.7296   18.4589 O.3     1  UNL1        0.0000
      6 C           1.8148    1.5285   18.3167 C.2     1  UNL1        0.0000
      7 C           2.3728    0.8636   19.4615 C.2     1  UNL1        0.0000
      8 C           2.3669   -0.5285   19.1020 C.3     1  UNL1        0.0000
      9 C           3.0875   -1.7963   19.4508 C.3     1  UNL1        0.0000
     10 H           4.1786   -1.6372   19.3819 H       1  UNL1        0.0000
     11 H           2.8526   -2.2247   20.4276 H       1  UNL1        0.0000
     12 C           2.1476   -2.0528   17.3140 C.3     1  UNL1        0.0000
     13 H           1.3173   -2.6479   16.9259 H       1  UNL1        0.0000
     14 H           2.9257   -1.9768   16.5337 H       1  UNL1        0.0000
     15 C           1.7971   -0.6835   17.8175 C.3     1  UNL1        0.0000
     16 C           1.4234    0.6019   17.3027 C.3     1  UNL1        0.0000
     17 C           2.2501    3.1534   21.5250 C.3     1  UNL1        0.0000
     18 H           2.4769    3.3485   22.5686 H       1  UNL1        0.0000
     19 H           1.1860    2.9301   21.4651 H       1  UNL1        0.0000
     20 H           2.4327    4.0819   20.9879 H       1  UNL1        0.0000
     21 C           4.9428    2.3716   20.1326 C.3     1  UNL1        0.0000
     22 H           5.4848    2.9510   20.8730 H       1  UNL1        0.0000
     23 H           4.7718    3.0148   19.2732 H       1  UNL1        0.0000
     24 H           5.5944    1.5650   19.8093 H       1  UNL1        0.0000
     25 C           3.6414    0.4286   22.2444 C.3     1  UNL1        0.0000
     26 H           4.3181   -0.3538   21.9142 H       1  UNL1        0.0000
     27 H           2.7196   -0.0456   22.5683 H       1  UNL1        0.0000
     28 H           4.0898    0.9066   23.1095 H       1  UNL1        0.0000
     29 C           2.2845    2.0273   14.7499 C.3     1  UNL1        0.0000
     30 H           1.9986    2.3747   13.7625 H       1  UNL1        0.0000
     31 H           3.1561    1.3891   14.6347 H       1  UNL1        0.0000
     32 H           2.5814    2.8933   15.3333 H       1  UNL1        0.0000
     33 C           0.3839   -0.4747   14.6227 C.3     1  UNL1        0.0000
     34 H          -0.3773   -1.0519   15.1395 H       1  UNL1        0.0000
     35 H           1.2446   -1.1198   14.4745 H       1  UNL1        0.0000
     36 H          -0.0075   -0.2226   13.6428 H       1  UNL1        0.0000
     37 C          -0.6876    2.2362   15.7820 C.3     1  UNL1        0.0000
     38 H          -1.4890    1.7268   16.3133 H       1  UNL1        0.0000
     39 H          -1.0767    2.5526   14.8190 H       1  UNL1        0.0000
     40 H          -0.4355    3.1291   16.3469 H       1  UNL1        0.0000
@<TRIPOS>BOND
     1    36    33    1
     2    30    29    1
     3    35    33    1
     4    33    34    1
     5    33     2    1
     6    31    29    1
     7    29    32    1
     8    29     2    1
     9    39    37    1
    10     2    37    1
    11     2    16    1
    12    37    38    1
    13    37    40    1
    14    14    12    1
    15    13    12    1
    16    16    15    1
    17    16     6    1
    18    12    15    1
    19    12     5    1
    20    15     8    1
    21     3     6    1
    22     3     4    1
    23     6     7    2
    24     5     9    1
    25     8     9    1
    26     8     7    1
    27    23    21    1
    28    10     9    1
    29     9    11    1
    30     7     1    1
    31    24    21    1
    32    21     1    1
    33    21    22    1
    34     1    17    1
    35     1    25    1
    36    20    17    1
    37    19    17    1
    38    17    18    1
    39    26    25    1
    40    25    27    1
    41    25    28    1
