@<TRIPOS>MOLECULE
3,4,5,6,7
 45 46 0 0 0
SMALL
GASTEIGER

@<TRIPOS>ATOM
      1 SI          1.5505    3.2648   13.6588 Si      1  UNL1        0.0000
      2 N           2.7505    4.5616   13.8556 N.ar    1  UNL1        0.0000
      3 C           2.4367    1.6195   13.8153 C.3     1  UNL1        0.0000
      4 C           2.1104    0.5143   14.6685 C.2     1  UNL1        0.0000
      5 C           3.1310   -0.4596   14.5467 C.2     1  UNL1        0.0000
      6 C           4.0946    0.0182   13.6050 C.2     1  UNL1        0.0000
      7 C           3.6732    1.2953   13.1634 C.2     1  UNL1        0.0000
      8 C           0.9969    0.4636   15.6791 C.3     1  UNL1        0.0000
      9 H           0.0921    0.9220   15.2892 H       1  UNL1        0.0000
     10 H           1.2891    0.9900   16.5916 H       1  UNL1        0.0000
     11 H           0.7691   -0.5680   15.9421 H       1  UNL1        0.0000
     12 C           3.2645   -1.6867   15.4086 C.3     1  UNL1        0.0000
     13 H           2.5559   -2.4622   15.1125 H       1  UNL1        0.0000
     14 H           3.0791   -1.4318   16.4531 H       1  UNL1        0.0000
     15 H           4.2694   -2.0950   15.3327 H       1  UNL1        0.0000
     16 C           5.4241   -0.6371   13.3377 C.3     1  UNL1        0.0000
     17 H           5.2999   -1.6833   13.0579 H       1  UNL1        0.0000
     18 H           6.0487   -0.5936   14.2330 H       1  UNL1        0.0000
     19 H           5.9597   -0.1274   12.5394 H       1  UNL1        0.0000
     20 C           4.4805    2.2574   12.3354 C.3     1  UNL1        0.0000
     21 H           5.2109    1.7386   11.7168 H       1  UNL1        0.0000
     22 H           5.0237    2.9487   12.9830 H       1  UNL1        0.0000
     23 H           3.8436    2.8570   11.6881 H       1  UNL1        0.0000
     24 C           0.1546    3.6927   14.8909 C.3     1  UNL1        0.0000
     25 H           0.4504    3.5393   15.9230 H       1  UNL1        0.0000
     26 H          -0.7308    3.0944   14.7045 H       1  UNL1        0.0000
     27 H          -0.1247    4.7380   14.7887 H       1  UNL1        0.0000
     28 C           0.7805    3.1575   11.9059 C.3     1  UNL1        0.0000
     29 H          -0.0409    3.8484   11.7522 H       1  UNL1        0.0000
     30 H           0.3891    2.1401   11.7961 H       1  UNL1        0.0000
     31 H           1.5080    3.3277   11.1183 H       1  UNL1        0.0000
     32 C           2.9030    5.7201   13.1198 C.ar    1  UNL1        0.0000
     33 C           3.9598    6.4262   13.6122 C.ar    1  UNL1        0.0000
     34 H           4.3193    7.3690   13.2468 H       1  UNL1        0.0000
     35 C           4.4831    5.6943   14.7023 C.ar    1  UNL1        0.0000
     36 H           5.3140    5.9787   15.3187 H       1  UNL1        0.0000
     37 C           3.7276    4.5679   14.8357 C.ar    1  UNL1        0.0000
     38 C           2.0027    6.1098   12.0012 C.3     1  UNL1        0.0000
     39 H           2.1855    5.5121   11.1089 H       1  UNL1        0.0000
     40 H           2.1848    7.1523   11.7515 H       1  UNL1        0.0000
     41 H           0.9587    5.9949   12.2828 H       1  UNL1        0.0000
     42 C           3.8554    3.5083   15.8721 C.3     1  UNL1        0.0000
     43 H           2.9027    3.3329   16.3672 H       1  UNL1        0.0000
     44 H           4.5810    3.8302   16.6152 H       1  UNL1        0.0000
     45 H           4.1891    2.5641   15.4466 H       1  UNL1        0.0000
@<TRIPOS>BOND
     1    39    38    1
     2    31    28    1
     3    23    20    1
     4    21    20    1
     5    40    38    1
     6    29    28    1
     7    30    28    1
     8    28     1    1
     9    38    41    1
    10    38    32    1
    11    20    22    1
    12    20     7    1
    13    19    16    1
    14    17    16    1
    15    32    33   ar
    16    32     2   ar
    17     7     6    2
    18     7     3    1
    19    34    33    1
    20    16     6    1
    21    16    18    1
    22     6     5    1
    23    33    35   ar
    24     1     3    1
    25     1     2    1
    26     1    24    1
    27     3     4    1
    28     2    37   ar
    29     5     4    2
    30     5    12    1
    31     4     8    1
    32    35    37   ar
    33    35    36    1
    34    26    24    1
    35    27    24    1
    36    37    42    1
    37    24    25    1
    38    13    12    1
    39     9     8    1
    40    15    12    1
    41    12    14    1
    42    45    42    1
    43     8    11    1
    44     8    10    1
    45    42    43    1
    46    42    44    1
