@<TRIPOS>MOLECULE
2,3,4,5,6
 45 46 0 0 0
SMALL
GASTEIGER

@<TRIPOS>ATOM
      1 SI          7.0550   10.9515    5.8960 Si      1  UNL1        0.0000
      2 C           5.8704   10.8273    4.4407 C.3     1  UNL1        0.0000
      3 C           4.4470   11.0120    4.6153 C.2     1  UNL1        0.0000
      4 C           3.8827   11.3686    3.3779 C.2     1  UNL1        0.0000
      5 C           4.9317   11.4094    2.4096 C.2     1  UNL1        0.0000
      6 C           6.1457   11.0943    3.0596 C.2     1  UNL1        0.0000
      7 C           7.4974   11.2947    2.4346 C.3     1  UNL1        0.0000
      8 H           7.7271   12.3623    2.3884 H       1  UNL1        0.0000
      9 H           7.5312   10.9108    1.4161 H       1  UNL1        0.0000
     10 H           8.2805   10.8109    3.0101 H       1  UNL1        0.0000
     11 C           3.7510   11.0945    5.9448 C.3     1  UNL1        0.0000
     12 H           3.8009   12.1170    6.3259 H       1  UNL1        0.0000
     13 H           4.2239   10.4498    6.6823 H       1  UNL1        0.0000
     14 H           2.6995   10.8221    5.8681 H       1  UNL1        0.0000
     15 C           2.5088   11.9330    3.1477 C.3     1  UNL1        0.0000
     16 H           2.5540   13.0250    3.1629 H       1  UNL1        0.0000
     17 H           1.8125   11.6255    3.9246 H       1  UNL1        0.0000
     18 H           2.1067   11.6376    2.1787 H       1  UNL1        0.0000
     19 C           4.7976   11.9983    1.0342 C.3     1  UNL1        0.0000
     20 H           4.8106   13.0898    1.0975 H       1  UNL1        0.0000
     21 H           3.8601   11.7053    0.5629 H       1  UNL1        0.0000
     22 H           5.6201   11.6898    0.3930 H       1  UNL1        0.0000
     23 C           8.9016   11.3169    5.5479 C.3     1  UNL1        0.0000
     24 H           9.0518   12.1757    4.9040 H       1  UNL1        0.0000
     25 H           9.4030   10.4680    5.0939 H       1  UNL1        0.0000
     26 H           9.4089   11.5277    6.4855 H       1  UNL1        0.0000
     27 C           7.0817    9.2787    6.8266 C.3     1  UNL1        0.0000
     28 H           6.1161    8.9988    7.2330 H       1  UNL1        0.0000
     29 H           7.8013    9.2694    7.6367 H       1  UNL1        0.0000
     30 H           7.3761    8.4992    6.1300 H       1  UNL1        0.0000
     31 N           6.5171   12.3235    6.8993 N.ar    1  UNL1        0.0000
     32 C           6.3028   12.3907    8.2626 C.ar    1  UNL1        0.0000
     33 C           5.8664   13.6410    8.5874 C.ar    1  UNL1        0.0000
     34 H           5.6211   13.9904    9.5721 H       1  UNL1        0.0000
     35 C           5.8074   14.3896    7.3916 C.ar    1  UNL1        0.0000
     36 H           5.5086   15.4159    7.2954 H       1  UNL1        0.0000
     37 C           6.2099   13.5694    6.3802 C.ar    1  UNL1        0.0000
     38 C           6.3251   13.9222    4.9399 C.3     1  UNL1        0.0000
     39 H           6.2198   14.9998    4.8347 H       1  UNL1        0.0000
     40 H           5.5493   13.4413    4.3475 H       1  UNL1        0.0000
     41 H           7.2900   13.6263    4.5359 H       1  UNL1        0.0000
     42 C           6.5508   11.2718    9.2110 C.3     1  UNL1        0.0000
     43 H           6.3638   11.6277   10.2215 H       1  UNL1        0.0000
     44 H           7.5819   10.9274    9.1545 H       1  UNL1        0.0000
     45 H           5.8933   10.4256    9.0209 H       1  UNL1        0.0000
@<TRIPOS>BOND
     1    22    19    1
     2    21    19    1
     3    19    20    1
     4    19     5    1
     5     9     7    1
     6    18    15    1
     7     8     7    1
     8     5     6    2
     9     5     4    1
    10     7    10    1
    11     7     6    1
    12     6     2    1
    13    15    16    1
    14    15     4    1
    15    15    17    1
    16     4     3    2
    17    40    38    1
    18     2     3    1
    19     2     1    1
    20    41    38    1
    21     3    11    1
    22    39    38    1
    23    24    23    1
    24    38    37    1
    25    25    23    1
    26    23     1    1
    27    23    26    1
    28    14    11    1
    29     1    27    1
    30     1    31    1
    31    11    12    1
    32    11    13    1
    33    30    27    1
    34    37    31   ar
    35    37    35   ar
    36    27    28    1
    37    27    29    1
    38    31    32   ar
    39    36    35    1
    40    35    33   ar
    41    32    33   ar
    42    32    42    1
    43    33    34    1
    44    45    42    1
    45    44    42    1
    46    42    43    1
