@<TRIPOS>MOLECULE
1,2,3,4,5
 25 25 0 0 0
SMALL
GASTEIGER

@<TRIPOS>ATOM
      1 C           8.5064   -0.2198    1.5837 C.2     1  UNL1       -0.0477
      2 C           8.3141    0.7193    2.6325 C.2     1  UNL1       -0.0477
      3 C           6.9797    0.5944    3.0962 C.2     1  UNL1       -0.0584
      4 C           6.3286   -0.4177    2.3228 C.3     1  UNL1        0.0231
      5 C           7.2906   -0.9275    1.3940 C.2     1  UNL1       -0.0584
      6 C           9.7981   -0.5423    0.8891 C.3     1  UNL1       -0.0395
      7 C           9.3605    1.5932    3.2628 C.3     1  UNL1       -0.0395
      8 C           6.4110    1.3358    4.2722 C.3     1  UNL1       -0.0424
      9 C           4.9869   -1.0223    2.6334 C.3     1  UNL1       -0.0510
     10 C           7.1319   -2.0920    0.4597 C.3     1  UNL1       -0.0424
     11 H           9.6306   -0.7618   -0.1650 H       1  UNL1        0.0278
     12 H          10.2625   -1.4202    1.3442 H       1  UNL1        0.0278
     13 H          10.5027    0.2845    0.9592 H       1  UNL1        0.0278
     14 H           8.9389    2.5537    3.5571 H       1  UNL1        0.0278
     15 H          10.1872    1.7772    2.5788 H       1  UNL1        0.0278
     16 H           9.7650    1.1138    4.1574 H       1  UNL1        0.0278
     17 H           5.4600    0.9066    4.5782 H       1  UNL1        0.0275
     18 H           6.2623    2.3940    4.0402 H       1  UNL1        0.0275
     19 H           7.0958    1.2762    5.1187 H       1  UNL1        0.0275
     20 H           4.6198   -1.6010    1.7892 H       1  UNL1        0.0242
     21 H           4.2486   -0.2581    2.8724 H       1  UNL1        0.0242
     22 H           5.0694   -1.6948    3.4908 H       1  UNL1        0.0242
     23 H           7.8262   -2.8887    0.7319 H       1  UNL1        0.0275
     24 H           7.3496   -1.8028   -0.5704 H       1  UNL1        0.0275
     25 H           6.1239   -2.4962    0.4976 H       1  UNL1        0.0275
@<TRIPOS>BOND
     1    24    10    1
     2    11     6    1
     3    10    25    1
     4    10    23    1
     5    10     5    1
     6     6    13    1
     7     6    12    1
     8     6     1    1
     9     5     1    2
    10     5     4    1
    11     1     2    1
    12    20     9    1
    13     4     9    1
    14     4     3    1
    15    15     7    1
    16     2     3    2
    17     2     7    1
    18     9    21    1
    19     9    22    1
    20     3     8    1
    21     7    14    1
    22     7    16    1
    23    18     8    1
    24     8    17    1
    25     8    19    1
