@<TRIPOS>MOLECULE
1,3,5,7,9
 10 10 0 0 0
SMALL
GASTEIGER

@<TRIPOS>ATOM
      1 C          16.1542   -1.9838    4.2949 C.3     1  UNL1       -0.0235
      2 H          15.8589   -2.0815    3.2573 H       1  UNL1        0.0315
      3 C          15.3220   -2.1673    5.4194 C.3     1  UNL1       -0.0127
      4 H          14.2693   -2.4138    5.3968 H       1  UNL1        0.0352
      5 C          16.1411   -2.1717    6.5753 C.2     1  UNL1       -0.0837
      6 H          15.8172   -2.4106    7.5800 H       1  UNL1        0.0572
      7 C          17.4762   -1.9673    6.1731 C.2     1  UNL1       -0.0837
      8 H          18.3471   -2.0205    6.8131 H       1  UNL1        0.0572
      9 C          17.4949   -1.8391    4.7583 C.3     1  UNL1       -0.0127
     10 H          18.3811   -1.8341    4.1351 H       1  UNL1        0.0352
@<TRIPOS>BOND
     1     2     1    1
     2    10     9    1
     3     1     9    1
     4     1     3    1
     5     9     7    1
     6     4     3    1
     7     3     5    1
     8     7     5    2
     9     7     8    1
    10     5     6    1
