@<TRIPOS>MOLECULE
3,4,10,12,14
 19 19 0 0 0
SMALL
GASTEIGER

@<TRIPOS>ATOM
      1 SI          3.8801    7.5581    4.9445 Si      1  UNL1        0.0000
      2 F           2.3895    6.8591    5.0693 F       1  UNL1        0.0000
      3 C           3.8811    7.8495    3.0846 C.3     1  UNL1        0.0000
      4 C           3.5336    8.8131    1.0280 C.2     1  UNL1        0.0000
      5 H           3.4512    9.5506    0.2397 H       1  UNL1        0.0000
      6 C           3.8233    9.1644    5.9476 C.3     1  UNL1        0.0000
      7 H           4.7167    9.7642    5.8087 H       1  UNL1        0.0000
      8 H           3.7326    8.9510    7.0082 H       1  UNL1        0.0000
      9 H           2.9615    9.7612    5.6563 H       1  UNL1        0.0000
     10 C           3.6055    7.4137    0.8431 C.2     1  UNL1        0.0000
     11 H           3.5991    6.9004   -0.1107 H       1  UNL1        0.0000
     12 C           3.8236    6.8200    2.1046 C.2     1  UNL1        0.0000
     13 H           4.0248    5.7698    2.2822 H       1  UNL1        0.0000
     14 C           3.6920    9.0822    2.4016 C.2     1  UNL1        0.0000
     15 H           3.7709   10.0666    2.8479 H       1  UNL1        0.0000
     16 C           5.1225    6.2413    5.5077 C.3     1  UNL1        0.0000
     17 H           6.1465    6.5520    5.3319 H       1  UNL1        0.0000
     18 H           4.9637    5.3008    4.9879 H       1  UNL1        0.0000
     19 H           5.0133    6.0494    6.5703 H       1  UNL1        0.0000
@<TRIPOS>BOND
     1    11    10    1
     2     5     4    1
     3    10     4    1
     4    10    12    2
     5     4    14    2
     6    12    13    1
     7    12     3    1
     8    14    15    1
     9    14     3    1
    10     3     1    1
    11     1     2    1
    12     1    16    1
    13     1     6    1
    14    18    16    1
    15    17    16    1
    16    16    19    1
    17     9     6    1
    18     7     6    1
    19     6     8    1
