@<TRIPOS>MOLECULE
1,2,3,4,5
 10 10 0 0 0
SMALL
GASTEIGER

@<TRIPOS>ATOM
      1 C          13.3337    7.2307   10.9775 C.2     1  UNL1       -0.0763
      2 C          12.0291    6.7024   10.9238 C.3     1  UNL1        0.0054
      3 C          11.2376    7.5745   10.1550 C.2     1  UNL1       -0.0763
      4 C          12.0664    8.6240    9.7036 C.2     1  UNL1       -0.0654
      5 C          13.3554    8.4127   10.2122 C.2     1  UNL1       -0.0654
      6 H          14.1950    6.7308   11.4026 H       1  UNL1        0.0578
      7 H          11.7170    5.7371   11.2986 H       1  UNL1        0.0394
      8 H          10.2056    7.4037    9.8663 H       1  UNL1        0.0578
      9 H          11.7963    9.3752    8.9703 H       1  UNL1        0.0615
     10 H          14.2320    8.9995    9.9674 H       1  UNL1        0.0615
@<TRIPOS>BOND
     1     9     4    1
     2     4     3    2
     3     4     5    1
     4     8     3    1
     5    10     5    1
     6     3     2    1
     7     5     1    2
     8     2     1    1
     9     2     7    1
    10     1     6    1
