@<TRIPOS>MOLECULE
1,2,3,4,5
 10 10 0 0 0
SMALL
GASTEIGER

@<TRIPOS>ATOM
      1 C          13.3241    8.8604   14.0961 C.2     1  UNL1       -0.0763
      2 C          14.0424    9.3460   12.9828 C.2     1  UNL1       -0.0654
      3 C          13.4390   10.5461   12.5670 C.2     1  UNL1       -0.0654
      4 C          12.3712   10.8200   13.4500 C.2     1  UNL1       -0.0763
      5 C          12.3019    9.7851   14.3894 C.3     1  UNL1        0.0054
      6 H          13.6136    8.0271   14.7215 H       1  UNL1        0.0578
      7 H          14.9798    8.9461   12.6150 H       1  UNL1        0.0615
      8 H          13.8034   11.2181   11.7996 H       1  UNL1        0.0615
      9 H          11.7852   11.7320   13.4653 H       1  UNL1        0.0578
     10 H          11.6177    9.7280   15.2269 H       1  UNL1        0.0394
@<TRIPOS>BOND
     1     8     3    1
     2     3     2    1
     3     3     4    2
     4     7     2    1
     5     2     1    2
     6     4     9    1
     7     4     5    1
     8     1     5    1
     9     1     6    1
    10     5    10    1
