@<TRIPOS>MOLECULE
1,2,3,4,5
 10 10 0 0 0
SMALL
GASTEIGER

@<TRIPOS>ATOM
      1 C          -1.7060    2.2122    2.2116 C.2     1  UNL1       -0.0763
      2 C          -1.3102    1.2078    1.2741 C.2     1  UNL1       -0.0654
      3 C          -0.1465    1.6529    0.6281 C.2     1  UNL1       -0.0654
      4 C           0.2116    2.9139    1.1733 C.2     1  UNL1       -0.0763
      5 C          -0.7815    3.2811    2.1134 C.3     1  UNL1        0.0054
      6 H          -2.6692    2.2624    2.7103 H       1  UNL1        0.0578
      7 H          -1.9035    0.3475    0.9875 H       1  UNL1        0.0615
      8 H           0.3568    1.1575   -0.1940 H       1  UNL1        0.0615
      9 H           0.9952    3.5615    0.7948 H       1  UNL1        0.0578
     10 H          -0.8759    4.2487    2.5953 H       1  UNL1        0.0394
@<TRIPOS>BOND
     1     8     3    1
     2     3     4    2
     3     3     2    1
     4     9     4    1
     5     7     2    1
     6     4     5    1
     7     2     1    2
     8     5     1    1
     9     5    10    1
    10     1     6    1
