@<TRIPOS>MOLECULE
1,6,7,12,13
 34 34 0 0 0
SMALL
GASTEIGER

@<TRIPOS>ATOM
      1 C           0.7575    0.5762    4.2150 C.2     1  UNL1        0.0000
      2 SI          0.3415    0.1347    5.9941 Si      1  UNL1        0.0000
      3 C           1.9840   -0.2141    6.9162 C.3     1  UNL1        0.0000
      4 C          -0.7292   -1.4438    5.9846 C.3     1  UNL1        0.0000
      5 C          -0.6125    1.4617    6.9960 C.3     1  UNL1        0.0000
      6 C           2.0266    0.9468    3.6999 C.3     1  UNL1        0.0000
      7 C           2.0423    0.7951    2.2888 C.2     1  UNL1        0.0000
      8 SI          3.6120    0.6756    1.2624 Si      1  UNL1        0.0000
      9 C           3.2976    0.6911   -0.6203 C.3     1  UNL1        0.0000
     10 C           4.8275    2.0870    1.7147 C.3     1  UNL1        0.0000
     11 C           4.4529   -0.9836    1.7129 C.3     1  UNL1        0.0000
     12 C           0.7609    0.2744    1.9350 C.2     1  UNL1        0.0000
     13 C          -0.0128    0.1519    3.0881 C.2     1  UNL1        0.0000
     14 H           1.7836   -0.6472    7.8906 H       1  UNL1        0.0000
     15 H           2.5705    0.6847    7.0791 H       1  UNL1        0.0000
     16 H           2.6025   -0.9181    6.3687 H       1  UNL1        0.0000
     17 H          -1.7010   -1.2599    5.5366 H       1  UNL1        0.0000
     18 H          -0.9009   -1.8021    6.9947 H       1  UNL1        0.0000
     19 H          -0.2564   -2.2456    5.4264 H       1  UNL1        0.0000
     20 H          -1.6431    1.5365    6.6630 H       1  UNL1        0.0000
     21 H          -0.1722    2.4533    6.9412 H       1  UNL1        0.0000
     22 H          -0.6339    1.1802    8.0441 H       1  UNL1        0.0000
     23 H           2.9087    1.1259    4.2982 H       1  UNL1        0.0000
     24 H           2.5400   -0.0330   -0.9032 H       1  UNL1        0.0000
     25 H           4.2077    0.4252   -1.1489 H       1  UNL1        0.0000
     26 H           2.9834    1.6628   -0.9871 H       1  UNL1        0.0000
     27 H           5.8190    1.8601    1.3361 H       1  UNL1        0.0000
     28 H           4.9142    2.2122    2.7900 H       1  UNL1        0.0000
     29 H           4.5327    3.0418    1.2904 H       1  UNL1        0.0000
     30 H           3.8124   -1.8269    1.4724 H       1  UNL1        0.0000
     31 H           4.6796   -1.0418    2.7734 H       1  UNL1        0.0000
     32 H           5.3838   -1.1130    1.1699 H       1  UNL1        0.0000
     33 H           0.4776   -0.0845    0.9551 H       1  UNL1        0.0000
     34 H          -0.9826   -0.3200    3.1415 H       1  UNL1        0.0000
@<TRIPOS>BOND
     1    25     9    1
     2    26     9    1
     3    24     9    1
     4     9     8    1
     5    33    12    1
     6    32    11    1
     7     8    11    1
     8     8    10    1
     9     8     7    1
    10    29    10    1
    11    27    10    1
    12    30    11    1
    13    11    31    1
    14    10    28    1
    15    12     7    2
    16    12    13    1
    17     7     6    1
    18    13    34    1
    19    13     1    2
    20     6     1    1
    21     6    23    1
    22     1     2    1
    23    19     4    1
    24    17     4    1
    25     4     2    1
    26     4    18    1
    27     2     3    1
    28     2     5    1
    29    16     3    1
    30    20     5    1
    31     3    15    1
    32     3    14    1
    33    21     5    1
    34     5    22    1
