@<TRIPOS>MOLECULE
1,3,5,7,9
 10 10 0 0 0
SMALL
GASTEIGER

@<TRIPOS>ATOM
      1 C           4.9399    5.4599    4.3317 C.2     1  UNL1       -0.0654
      2 H           4.8963    6.0960    3.4563 H       1  UNL1        0.0615
      3 C           5.9935    4.5759    4.6513 C.2     1  UNL1       -0.0654
      4 H           6.8809    4.4079    4.0535 H       1  UNL1        0.0615
      5 C           5.6193    3.8463    5.7997 C.2     1  UNL1       -0.0763
      6 H           6.1520    3.0017    6.2178 H       1  UNL1        0.0578
      7 C           4.3342    4.2852    6.1893 C.3     1  UNL1        0.0054
      8 H           3.7191    3.8310    6.9574 H       1  UNL1        0.0394
      9 C           3.9129    5.2677    5.2688 C.2     1  UNL1       -0.0763
     10 H           2.9274    5.7135    5.2222 H       1  UNL1        0.0578
@<TRIPOS>BOND
     1     2     1    1
     2     4     3    1
     3     1     3    1
     4     1     9    2
     5     3     5    2
     6    10     9    1
     7     9     7    1
     8     5     7    1
     9     5     6    1
    10     7     8    1
