@<TRIPOS>MOLECULE
1,3,5,7,9
 10 10 0 0 0
SMALL
GASTEIGER

@<TRIPOS>ATOM
      1 C           4.4440    7.9453    6.7722 C.2     1  UNL1       -0.0763
      2 H           3.8836    8.4374    5.9862 H       1  UNL1        0.0578
      3 C           3.9289    7.0044    7.6835 C.2     1  UNL1       -0.0654
      4 H           2.9094    6.6418    7.7154 H       1  UNL1        0.0615
      5 C           4.9228    6.7250    8.6349 C.2     1  UNL1       -0.0654
      6 H           4.7852    6.1492    9.5407 H       1  UNL1        0.0615
      7 C           6.0612    7.4997    8.3260 C.2     1  UNL1       -0.0763
      8 H           6.9481    7.5977    8.9418 H       1  UNL1        0.0578
      9 C           5.7571    8.2700    7.1785 C.3     1  UNL1        0.0054
     10 H           6.3514    9.0896    6.7970 H       1  UNL1        0.0394
@<TRIPOS>BOND
     1     2     1    1
     2     1     9    1
     3     1     3    2
     4    10     9    1
     5     9     7    1
     6     3     4    1
     7     3     5    1
     8     7     5    2
     9     7     8    1
    10     5     6    1
