@<TRIPOS>MOLECULE
1,3,5,7,9
 10 10 0 0 0
SMALL
GASTEIGER

@<TRIPOS>ATOM
      1 C           0.4723    9.6306   11.4267 C.2     1  UNL1       -0.0837
      2 H          -0.3435    9.2032   11.9971 H       1  UNL1        0.0572
      3 C           1.1355   10.8340   11.7205 C.2     1  UNL1       -0.0837
      4 H           0.9119   11.4931   12.5493 H       1  UNL1        0.0572
      5 C           2.2100   10.9774   10.8268 C.3     1  UNL1       -0.0127
      6 H           2.9568   11.7605   10.8663 H       1  UNL1        0.0352
      7 C           2.2487    9.8284   10.0009 C.3     1  UNL1       -0.0235
      8 H           3.0429    9.5519    9.3166 H       1  UNL1        0.0315
      9 C           1.1729    8.9921   10.3797 C.3     1  UNL1       -0.0127
     10 H           1.0197    7.9741   10.0447 H       1  UNL1        0.0352
@<TRIPOS>BOND
     1     8     7    1
     2     7     9    1
     3     7     5    1
     4    10     9    1
     5     9     1    1
     6     5     6    1
     7     5     3    1
     8     1     3    2
     9     1     2    1
    10     3     4    1
