@<TRIPOS>MOLECULE
1,3,5,7,9
 10 10 0 0 0
SMALL
GASTEIGER

@<TRIPOS>ATOM
      1 C          -1.9064   11.7673    9.4770 C.2     1  UNL1       -0.0654
      2 H          -2.8115   11.1749    9.4141 H       1  UNL1        0.0615
      3 C          -1.2344   12.3660    8.3886 C.2     1  UNL1       -0.0654
      4 H          -1.5277   12.2952    7.3477 H       1  UNL1        0.0615
      5 C          -0.1927   13.1672    8.9031 C.2     1  UNL1       -0.0763
      6 H           0.4345   13.8383    8.3313 H       1  UNL1        0.0578
      7 C          -0.2275   13.0698   10.3071 C.3     1  UNL1        0.0054
      8 H           0.3705   13.6611   10.9899 H       1  UNL1        0.0394
      9 C          -1.2877   12.2087   10.6608 C.2     1  UNL1       -0.0763
     10 H          -1.6447   12.0161   11.6651 H       1  UNL1        0.0578
@<TRIPOS>BOND
     1     4     3    1
     2     6     5    1
     3     3     5    2
     4     3     1    1
     5     5     7    1
     6     2     1    1
     7     1     9    2
     8     7     9    1
     9     7     8    1
    10     9    10    1
