@<TRIPOS>MOLECULE
1,2,3,4,5
 10 10 0 0 0
SMALL
GASTEIGER

@<TRIPOS>ATOM
      1 C           8.8311   -1.0168    0.0452 C.2     1  UNL1       -0.0837
      2 C           9.7840   -0.5366   -0.8793 C.2     1  UNL1       -0.0837
      3 C           9.0995    0.1397   -1.9086 C.3     1  UNL1       -0.0127
      4 C           7.7142    0.1017   -1.6077 C.3     1  UNL1       -0.0235
      5 C           7.5545   -0.6115   -0.4022 C.3     1  UNL1       -0.0127
      6 H           9.0340   -1.6596    0.8833 H       1  UNL1        0.0572
      7 H          10.8431   -0.7172   -0.8344 H       1  UNL1        0.0572
      8 H           9.5462    0.5109   -2.8144 H       1  UNL1        0.0352
      9 H           6.9144    0.4500   -2.2361 H       1  UNL1        0.0315
     10 H           6.6196   -0.8521    0.0709 H       1  UNL1        0.0352
@<TRIPOS>BOND
     1     8     3    1
     2     9     4    1
     3     3     4    1
     4     3     2    1
     5     4     5    1
     6     2     7    1
     7     2     1    2
     8     5     1    1
     9     5    10    1
    10     1     6    1
