@<TRIPOS>MOLECULE
1,2,4,6,8
 34 37 0 0 0
SMALL
GASTEIGER

@<TRIPOS>ATOM
      1 C          14.9408   11.2445    8.3534 C.3     1  UNL1        0.0053
      2 C          13.7826   11.4018    7.5583 C.3     1  UNL1       -0.0199
      3 H          13.1029   10.6201    7.2458 H       1  UNL1        0.0318
      4 C          13.7542   12.7257    7.0618 C.3     1  UNL1       -0.0124
      5 H          13.0601   13.0951    6.3140 H       1  UNL1        0.0352
      6 C          14.8990   13.3891    7.5376 C.2     1  UNL1       -0.0834
      7 H          15.2238   14.3800    7.2532 H       1  UNL1        0.0572
      8 C          15.6147   12.4924    8.3472 C.2     1  UNL1       -0.0800
      9 H          16.5777   12.7039    8.7934 H       1  UNL1        0.0575
     10 C          15.4298    9.9572    8.9892 C.3     1  UNL1       -0.0252
     11 H          15.0578    9.9054   10.0259 H       1  UNL1        0.0315
     12 C          16.9653    9.8794    9.0521 C.3     1  UNL1       -0.0366
     13 H          17.3536   10.7580    9.5778 H       1  UNL1        0.0304
     14 C          17.5501    9.8243    7.6417 C.3     1  UNL1       -0.0471
     15 H          18.6413    9.7989    7.6948 H       1  UNL1        0.0271
     16 H          17.2582   10.7171    7.0851 H       1  UNL1        0.0271
     17 C          17.0335    8.5783    6.9251 C.3     1  UNL1       -0.0403
     18 H          17.4543    8.5375    5.9138 H       1  UNL1        0.0301
     19 C          15.5105    8.6493    6.8399 C.3     1  UNL1       -0.0471
     20 H          15.2162    9.5375    6.2779 H       1  UNL1        0.0271
     21 H          15.1242    7.7717    6.3151 H       1  UNL1        0.0271
     22 C          14.9232    8.7070    8.2496 C.3     1  UNL1       -0.0366
     23 H          13.8300    8.7358    8.1898 H       1  UNL1        0.0304
     24 C          15.3369    7.4544    9.0228 C.3     1  UNL1       -0.0471
     25 H          14.9101    7.4775   10.0293 H       1  UNL1        0.0271
     26 H          14.9515    6.5650    8.5177 H       1  UNL1        0.0271
     27 C          16.8601    7.3842    9.1074 C.3     1  UNL1       -0.0403
     28 H          17.1556    6.4874    9.6644 H       1  UNL1        0.0301
     29 C          17.4477    7.3269    7.6982 C.3     1  UNL1       -0.0473
     30 H          18.5372    7.2657    7.7523 H       1  UNL1        0.0271
     31 H          17.0881    6.4339    7.1811 H       1  UNL1        0.0271
     32 C          17.3816    8.6274    9.8248 C.3     1  UNL1       -0.0471
     33 H          18.4710    8.5841    9.8962 H       1  UNL1        0.0271
     34 H          16.9822    8.6664   10.8416 H       1  UNL1        0.0271
@<TRIPOS>BOND
     1    18    17    1
     2    20    19    1
     3     5     4    1
     4    21    19    1
     5    19    17    1
     6    19    22    1
     7    17    14    1
     8    17    29    1
     9     4     6    1
    10     4     2    1
    11    16    14    1
    12    31    29    1
    13     3     2    1
    14     7     6    1
    15     6     8    2
    16     2     1    1
    17    14    15    1
    18    14    12    1
    19    29    30    1
    20    29    27    1
    21    23    22    1
    22    22    10    1
    23    22    24    1
    24     8     1    1
    25     8     9    1
    26     1    10    1
    27    26    24    1
    28    10    12    1
    29    10    11    1
    30    24    27    1
    31    24    25    1
    32    12    13    1
    33    12    32    1
    34    27    28    1
    35    27    32    1
    36    32    33    1
    37    32    34    1
