@<TRIPOS>MOLECULE
1,2,4,6,8
 20 21 0 0 0
SMALL
GASTEIGER

@<TRIPOS>ATOM
      1 C           0.1179   11.8092    7.0888 C.2     1  UNL1       -0.0478
      2 C          -1.0839   12.4013    7.5680 C.2     1  UNL1       -0.0619
      3 H          -1.4597   12.3337    8.5809 H       1  UNL1        0.0617
      4 C          -1.8021   12.8838    6.4585 C.2     1  UNL1       -0.0758
      5 H          -2.8134   13.2718    6.4843 H       1  UNL1        0.0578
      6 C          -1.0398   12.6222    5.2941 C.3     1  UNL1        0.0090
      7 H          -1.3713   12.7588    4.2716 H       1  UNL1        0.0397
      8 C           0.1348   11.9416    5.6832 C.2     1  UNL1       -0.0587
      9 C           1.1703   11.3002    4.8056 C.3     1  UNL1       -0.0306
     10 H           1.5242   11.9959    4.0377 H       1  UNL1        0.0310
     11 H           0.7076   10.4483    4.2897 H       1  UNL1        0.0310
     12 C           2.3508   10.8064    5.6466 C.3     1  UNL1       -0.0490
     13 H           2.9800   10.1505    5.0413 H       1  UNL1        0.0268
     14 H           2.9568   11.6594    5.9610 H       1  UNL1        0.0268
     15 C           1.8536   10.0602    6.8837 C.3     1  UNL1       -0.0488
     16 H           2.6928    9.5838    7.3932 H       1  UNL1        0.0268
     17 H           1.1521    9.2790    6.5787 H       1  UNL1        0.0268
     18 C           1.1540   11.0288    7.8424 C.3     1  UNL1       -0.0277
     19 H           0.6854   10.4817    8.6665 H       1  UNL1        0.0313
     20 H           1.9068   11.7039    8.2717 H       1  UNL1        0.0313
@<TRIPOS>BOND
     1    10     9    1
     2     7     6    1
     3    11     9    1
     4     9    12    1
     5     9     8    1
     6    13    12    1
     7     6     8    1
     8     6     4    1
     9    12    14    1
    10    12    15    1
    11     8     1    2
    12     4     5    1
    13     4     2    2
    14    17    15    1
    15    15    16    1
    16    15    18    1
    17     1     2    1
    18     1    18    1
    19     2     3    1
    20    18    20    1
    21    18    19    1
