@<TRIPOS>MOLECULE
1,2,4,6,8
 20 21 0 0 0
SMALL
GASTEIGER

@<TRIPOS>ATOM
      1 C           0.8534   16.2853    5.8440 C.2     1  UNL1       -0.0478
      2 C           0.0127   16.4302    6.9745 C.2     1  UNL1       -0.0729
      3 H           0.2764   16.9899    7.8633 H       1  UNL1        0.0581
      4 C          -1.2814   15.9663    6.6144 C.3     1  UNL1        0.0060
      5 H          -2.1830   16.0690    7.2068 H       1  UNL1        0.0394
      6 C          -1.2288   15.5350    5.2768 C.2     1  UNL1       -0.0729
      7 H          -2.0787   15.2423    4.6738 H       1  UNL1        0.0581
      8 C           0.0968   15.6955    4.8102 C.2     1  UNL1       -0.0478
      9 C           0.6542   15.4338    3.4400 C.3     1  UNL1       -0.0277
     10 H           0.9469   14.3796    3.3444 H       1  UNL1        0.0313
     11 H          -0.1031   15.6392    2.6763 H       1  UNL1        0.0313
     12 C           1.8885   16.3130    3.2191 C.3     1  UNL1       -0.0488
     13 H           2.3821   16.0261    2.2884 H       1  UNL1        0.0268
     14 H           1.5770   17.3570    3.1286 H       1  UNL1        0.0268
     15 C           2.8604   16.1776    4.3912 C.3     1  UNL1       -0.0488
     16 H           3.8008   16.6809    4.1588 H       1  UNL1        0.0268
     17 H           3.0762   15.1198    4.5660 H       1  UNL1        0.0268
     18 C           2.2574   16.7779    5.6640 C.3     1  UNL1       -0.0277
     19 H           2.2364   17.8726    5.5813 H       1  UNL1        0.0313
     20 H           2.8764   16.5258    6.5319 H       1  UNL1        0.0313
@<TRIPOS>BOND
     1    13    12    1
     2    11     9    1
     3    14    12    1
     4    12     9    1
     5    12    15    1
     6    10     9    1
     7     9     8    1
     8    16    15    1
     9    15    17    1
    10    15    18    1
    11     7     6    1
    12     8     6    2
    13     8     1    1
    14     6     4    1
    15    19    18    1
    16    18     1    1
    17    18    20    1
    18     1     2    2
    19     4     2    1
    20     4     5    1
    21     2     3    1
