@<TRIPOS>MOLECULE
1,2,3,4,5
 10 10 0 0 0
SMALL
GASTEIGER

@<TRIPOS>ATOM
      1 C           1.9648   -0.5125    8.9671 C.2     1  UNL1       -0.0763
      2 C           2.6766    0.0900    7.9139 C.2     1  UNL1       -0.0654
      3 C           2.0184    1.2877    7.5687 C.2     1  UNL1       -0.0654
      4 C           0.8970    1.4324    8.4188 C.2     1  UNL1       -0.0763
      5 C           0.8704    0.3155    9.2857 C.3     1  UNL1        0.0054
      6 H           2.1621   -1.4854    9.3991 H       1  UNL1        0.0578
      7 H           3.5010   -0.3566    7.3745 H       1  UNL1        0.0615
      8 H           2.2378    1.8904    6.6941 H       1  UNL1        0.0615
      9 H           0.1146    2.1788    8.3258 H       1  UNL1        0.0578
     10 H           0.0753    0.0578    9.9743 H       1  UNL1        0.0394
@<TRIPOS>BOND
     1     8     3    1
     2     7     2    1
     3     3     2    1
     4     3     4    2
     5     2     1    2
     6     9     4    1
     7     4     5    1
     8     1     5    1
     9     1     6    1
    10     5    10    1
