@<TRIPOS>MOLECULE
1,2,3,4,5
 10 10 0 0 0
SMALL
GASTEIGER

@<TRIPOS>ATOM
      1 C           3.2568    4.0754   10.9057 C.2     1  UNL1       -0.0763
      2 C           2.2043    4.2333    9.9747 C.2     1  UNL1       -0.0654
      3 C           2.7297    4.0084    8.6876 C.2     1  UNL1       -0.0654
      4 C           4.0969    3.6850    8.8196 C.2     1  UNL1       -0.0763
      5 C           4.4237    3.7494   10.1920 C.3     1  UNL1        0.0054
      6 H           3.2150    4.3224   11.9575 H       1  UNL1        0.0578
      7 H           1.2213    4.6307   10.1961 H       1  UNL1        0.0615
      8 H           2.2111    4.2017    7.7564 H       1  UNL1        0.0615
      9 H           4.8045    3.5777    8.0059 H       1  UNL1        0.0578
     10 H           5.4171    3.6934   10.6195 H       1  UNL1        0.0394
@<TRIPOS>BOND
     1     8     3    1
     2     9     4    1
     3     3     4    2
     4     3     2    1
     5     4     5    1
     6     2     7    1
     7     2     1    2
     8     5    10    1
     9     5     1    1
    10     1     6    1
