@<TRIPOS>MOLECULE
1,3,5,7,9
 10 10 0 0 0
SMALL
GASTEIGER

@<TRIPOS>ATOM
      1 C          -2.7443    4.8871   13.6288 C.3     1  UNL1       -0.0235
      2 H          -2.4045    5.8109   14.0679 H       1  UNL1        0.0315
      3 C          -3.9990    4.6692   13.0255 C.3     1  UNL1       -0.0127
      4 H          -4.7926    5.3925   12.9356 H       1  UNL1        0.0352
      5 C          -4.1020    3.2833   12.7168 C.2     1  UNL1       -0.0837
      6 H          -4.9880    2.7851   12.3580 H       1  UNL1        0.0572
      7 C          -2.9140    2.6524   13.1412 C.2     1  UNL1       -0.0837
      8 H          -2.7175    1.5934   13.1225 H       1  UNL1        0.0572
      9 C          -2.0582    3.6442   13.6782 C.3     1  UNL1       -0.0127
     10 H          -1.1252    3.4604   14.1855 H       1  UNL1        0.0352
@<TRIPOS>BOND
     1     6     5    1
     2     5     3    1
     3     5     7    2
     4     4     3    1
     5     3     1    1
     6     8     7    1
     7     7     9    1
     8     1     9    1
     9     1     2    1
    10     9    10    1
