@<TRIPOS>MOLECULE
1,15,17,31,33
 34 34 0 0 0
SMALL
GASTEIGER

@<TRIPOS>ATOM
      1 C           5.6504    6.6082    6.6461 C.3     1  UNL1        0.0000
      2 SI          5.6811    7.7749    8.1255 Si      1  UNL1        0.0000
      3 C           3.8565    8.2049    8.5188 C.3     1  UNL1        0.0000
      4 H           3.3203    8.5232    7.6307 H       1  UNL1        0.0000
      5 H           3.8011    9.0121    9.2417 H       1  UNL1        0.0000
      6 H           3.3218    7.3597    8.9419 H       1  UNL1        0.0000
      7 C           6.6006    9.3526    7.5611 C.3     1  UNL1        0.0000
      8 H           7.6637    9.1680    7.4424 H       1  UNL1        0.0000
      9 H           6.4913   10.1462    8.2928 H       1  UNL1        0.0000
     10 H           6.2205    9.7230    6.6145 H       1  UNL1        0.0000
     11 C           6.4864    7.2142    9.7663 C.3     1  UNL1        0.0000
     12 H           7.5282    6.9439    9.6399 H       1  UNL1        0.0000
     13 H           5.9736    6.3779   10.2291 H       1  UNL1        0.0000
     14 H           6.4539    8.0389   10.4724 H       1  UNL1        0.0000
     15 C           6.4984    6.7302    5.5107 C.3     1  UNL1        0.0000
     16 H           7.3914    7.3419    5.4732 H       1  UNL1        0.0000
     17 C           5.8857    6.1276    4.3834 C.2     1  UNL1        0.0000
     18 SI          6.3045    6.3937    2.5670 Si      1  UNL1        0.0000
     19 C           7.9153    7.4184    2.4474 C.3     1  UNL1        0.0000
     20 H           7.8313    8.3552    2.9887 H       1  UNL1        0.0000
     21 H           8.1280    7.6608    1.4116 H       1  UNL1        0.0000
     22 H           8.7781    6.8884    2.8365 H       1  UNL1        0.0000
     23 C           6.4672    4.7782    1.5518 C.3     1  UNL1        0.0000
     24 H           7.5041    4.5090    1.3784 H       1  UNL1        0.0000
     25 H           5.9911    4.8860    0.5831 H       1  UNL1        0.0000
     26 H           5.9909    3.9457    2.0614 H       1  UNL1        0.0000
     27 C           4.8707    7.4155    1.8229 C.3     1  UNL1        0.0000
     28 H           4.6641    8.3051    2.4094 H       1  UNL1        0.0000
     29 H           3.9573    6.8311    1.7784 H       1  UNL1        0.0000
     30 H           5.1048    7.7343    0.8123 H       1  UNL1        0.0000
     31 C           4.6300    5.6342    4.8255 C.2     1  UNL1        0.0000
     32 H           3.8702    5.2374    4.1674 H       1  UNL1        0.0000
     33 C           4.4850    5.9161    6.1920 C.3     1  UNL1        0.0000
     34 H           3.5779    5.7816    6.7667 H       1  UNL1        0.0000
@<TRIPOS>BOND
     1    25    23    1
     2    30    27    1
     3    24    23    1
     4    21    19    1
     5    23    26    1
     6    23    18    1
     7    29    27    1
     8    27    28    1
     9    27    18    1
    10    19    18    1
    11    19    22    1
    12    19    20    1
    13    18    17    1
    14    32    31    1
    15    17    31    2
    16    17    15    1
    17    31    33    1
    18    16    15    1
    19    15     1    1
    20    33     1    1
    21    33    34    1
    22    10     7    1
    23     1     2    1
    24     8     7    1
    25     7     2    1
    26     7     9    1
    27     4     3    1
    28     2     3    1
    29     2    11    1
    30     3     6    1
    31     3     5    1
    32    12    11    1
    33    11    13    1
    34    11    14    1
