@<TRIPOS>MOLECULE
1,15,17,31,33
 34 34 0 0 0
SMALL
GASTEIGER

@<TRIPOS>ATOM
      1 C           7.0902    2.7455    7.9253 C.3     1  UNL1        0.0000
      2 SI          8.6540    1.7874    8.3530 Si      1  UNL1        0.0000
      3 C           8.7938    1.7749   10.2599 C.3     1  UNL1        0.0000
      4 H           7.8888    1.3960   10.7241 H       1  UNL1        0.0000
      5 H           8.9681    2.7728   10.6493 H       1  UNL1        0.0000
      6 H           9.6185    1.1493   10.5855 H       1  UNL1        0.0000
      7 C           8.4458   -0.0126    7.7396 C.3     1  UNL1        0.0000
      8 H           7.5945   -0.4922    8.2117 H       1  UNL1        0.0000
      9 H           9.3252   -0.6004    7.9817 H       1  UNL1        0.0000
     10 H           8.3018   -0.0738    6.6658 H       1  UNL1        0.0000
     11 C          10.2916    2.4964    7.6639 C.3     1  UNL1        0.0000
     12 H          10.5890    3.3893    8.2031 H       1  UNL1        0.0000
     13 H          10.2398    2.7420    6.6086 H       1  UNL1        0.0000
     14 H          11.0877    1.7695    7.7884 H       1  UNL1        0.0000
     15 C           5.9340    2.1819    7.3325 C.3     1  UNL1        0.0000
     16 H           5.8882    1.2091    6.8589 H       1  UNL1        0.0000
     17 C           4.8117    3.0124    7.5814 C.3     1  UNL1        0.0000
     18 SI          3.0196    2.5215    7.3059 Si      1  UNL1        0.0000
     19 C           1.9909    3.1608    8.7868 C.3     1  UNL1        0.0000
     20 H           2.4004    2.8188    9.7316 H       1  UNL1        0.0000
     21 H           0.9692    2.8017    8.7234 H       1  UNL1        0.0000
     22 H           1.9501    4.2453    8.8200 H       1  UNL1        0.0000
     23 C           2.2502    3.2116    5.6950 C.3     1  UNL1        0.0000
     24 H           2.9982    3.2563    4.9112 H       1  UNL1        0.0000
     25 H           1.8373    4.2073    5.8237 H       1  UNL1        0.0000
     26 H           1.4430    2.5729    5.3491 H       1  UNL1        0.0000
     27 C           2.9288    0.6145    7.2297 C.3     1  UNL1        0.0000
     28 H           3.3162    0.1613    8.1366 H       1  UNL1        0.0000
     29 H           3.5023    0.2203    6.3967 H       1  UNL1        0.0000
     30 H           1.9039    0.2782    7.1091 H       1  UNL1        0.0000
     31 C           5.2863    4.0959    8.3751 C.2     1  UNL1        0.0000
     32 H           4.6576    4.8337    8.8540 H       1  UNL1        0.0000
     33 C           6.6646    3.9475    8.5671 C.2     1  UNL1        0.0000
     34 H           7.2782    4.5358    9.2315 H       1  UNL1        0.0000
@<TRIPOS>BOND
     1    24    23    1
     2    26    23    1
     3    23    25    1
     4    23    18    1
     5    29    27    1
     6    13    11    1
     7    10     7    1
     8    16    15    1
     9    30    27    1
    10    27    18    1
    11    27    28    1
    12    18    17    1
    13    18    19    1
    14    15    17    1
    15    15     1    1
    16    17    31    1
    17    11    14    1
    18    11    12    1
    19    11     2    1
    20     7     9    1
    21     7     8    1
    22     7     2    1
    23     1     2    1
    24     1    33    1
    25     2     3    1
    26    31    33    2
    27    31    32    1
    28    33    34    1
    29    21    19    1
    30    19    22    1
    31    19    20    1
    32     3     6    1
    33     3     5    1
    34     3     4    1
