@<TRIPOS>MOLECULE
1,2,3,4,5
 25 25 0 0 0
SMALL
GASTEIGER

@<TRIPOS>ATOM
      1 C          -4.9017   -1.5829   -4.1860 C.2     1  UNL1       -0.0584
      2 C          -3.9681   -1.7277   -3.1180 C.3     1  UNL1        0.0231
      3 C          -4.6441   -2.3547   -2.0336 C.2     1  UNL1       -0.0584
      4 C          -5.9760   -2.6242   -2.4367 C.2     1  UNL1       -0.0477
      5 C          -6.1430   -2.1257   -3.7561 C.2     1  UNL1       -0.0477
      6 C          -4.6974   -0.8419   -5.4808 C.3     1  UNL1       -0.0424
      7 C          -2.6802   -0.9653   -2.9420 C.3     1  UNL1       -0.0510
      8 C          -4.0764   -2.5657   -0.6574 C.3     1  UNL1       -0.0424
      9 C          -7.0565   -3.2809   -1.6213 C.3     1  UNL1       -0.0395
     10 C          -7.4671   -2.0126   -4.4617 C.3     1  UNL1       -0.0395
     11 H          -5.2863    0.0785   -5.4898 H       1  UNL1        0.0275
     12 H          -5.0094   -1.4506   -6.3315 H       1  UNL1        0.0275
     13 H          -3.6531   -0.5678   -5.6175 H       1  UNL1        0.0275
     14 H          -2.8492   -0.1293   -2.2582 H       1  UNL1        0.0242
     15 H          -2.3230   -0.5517   -3.8807 H       1  UNL1        0.0242
     16 H          -1.8937   -1.5835   -2.5101 H       1  UNL1        0.0242
     17 H          -4.4111   -1.7735    0.0167 H       1  UNL1        0.0275
     18 H          -2.9884   -2.5521   -0.6814 H       1  UNL1        0.0275
     19 H          -4.3983   -3.5208   -0.2446 H       1  UNL1        0.0275
     20 H          -7.8261   -2.5569   -1.3415 H       1  UNL1        0.0278
     21 H          -6.6388   -3.7086   -0.7120 H       1  UNL1        0.0278
     22 H          -7.5311   -4.0843   -2.1927 H       1  UNL1        0.0278
     23 H          -8.0474   -1.1906   -4.0327 H       1  UNL1        0.0278
     24 H          -8.0600   -2.9247   -4.3524 H       1  UNL1        0.0278
     25 H          -7.3322   -1.8126   -5.5232 H       1  UNL1        0.0278
@<TRIPOS>BOND
     1    12     6    1
     2    13     6    1
     3    25    10    1
     4    11     6    1
     5     6     1    1
     6    10    24    1
     7    10    23    1
     8    10     5    1
     9     1     5    2
    10     1     2    1
    11    15     7    1
    12     5     4    1
    13     2     7    1
    14     2     3    1
    15     7    16    1
    16     7    14    1
    17     4     3    2
    18     4     9    1
    19    22     9    1
    20     3     8    1
    21     9    20    1
    22     9    21    1
    23    18     8    1
    24     8    19    1
    25     8    17    1
