@<TRIPOS>MOLECULE
6,7,8,9,11
 59 59 0 0 0
SMALL
GASTEIGER

@<TRIPOS>ATOM
      1 SI         17.4955    3.1197    1.6251 Si      1  UNL1        0.0000
      2 O          12.8146    4.6159    0.5309 O.3     1  UNL1        0.0000
      3 O          11.9859    5.1757    2.9200 O.3     1  UNL1        0.0000
      4 O          12.5592    3.4623    5.0931 O.3     1  UNL1        0.0000
      5 N          15.3760    5.2754    3.7832 N.1     1  UNL1        0.0000
      6 C          13.2002    3.7388    1.4810 C.3     1  UNL1        0.0000
      7 C          12.6257    3.9827    2.7821 C.3     1  UNL1        0.0000
      8 C          13.0208    3.1327    3.8648 C.3     1  UNL1        0.0000
      9 C          13.7685    1.9720    3.5583 C.3     1  UNL1        0.0000
     10 C          14.8067    2.0979    2.4611 C.3     1  UNL1        0.0000
     11 C          14.0112    2.6178    1.2864 C.3     1  UNL1        0.0000
     12 C          13.0663    4.3125   -0.8238 C.3     1  UNL1        0.0000
     13 C          10.8123    5.2178    3.7069 C.3     1  UNL1        0.0000
     14 C          12.7514    2.5652    6.1655 C.3     1  UNL1        0.0000
     15 C          16.0299    2.9471    2.8995 C.3     1  UNL1        0.0000
     16 C          15.6474    4.2387    3.3763 C.1     1  UNL1        0.0000
     17 C          16.9985    4.1484    0.0742 C.3     1  UNL1        0.0000
     18 C          16.3766    5.4979    0.4318 C.3     1  UNL1        0.0000
     19 C          18.1973    4.3710   -0.8486 C.3     1  UNL1        0.0000
     20 C          18.9278    4.0296    2.5518 C.3     1  UNL1        0.0000
     21 C          20.3090    3.5938    2.0596 C.3     1  UNL1        0.0000
     22 C          18.8723    3.8903    4.0741 C.3     1  UNL1        0.0000
     23 C          18.0629    1.3540    1.0827 C.3     1  UNL1        0.0000
     24 C          17.1980    0.7229   -0.0094 C.3     1  UNL1        0.0000
     25 C          18.1988    0.3888    2.2612 C.3     1  UNL1        0.0000
     26 H          14.0632    1.3455    4.3986 H       1  UNL1        0.0000
     27 H          15.1949    1.1033    2.2216 H       1  UNL1        0.0000
     28 H          14.4474    2.4669    0.3042 H       1  UNL1        0.0000
     29 H          12.5851    5.1074   -1.3901 H       1  UNL1        0.0000
     30 H          14.1370    4.3070   -1.0464 H       1  UNL1        0.0000
     31 H          12.6264    3.3480   -1.1012 H       1  UNL1        0.0000
     32 H          10.3445    6.1738    3.4774 H       1  UNL1        0.0000
     33 H          11.0351    5.1610    4.7743 H       1  UNL1        0.0000
     34 H          10.1339    4.3990    3.4320 H       1  UNL1        0.0000
     35 H          12.2847    3.0416    7.0255 H       1  UNL1        0.0000
     36 H          13.8144    2.4085    6.3727 H       1  UNL1        0.0000
     37 H          12.2643    1.6042    5.9713 H       1  UNL1        0.0000
     38 H          16.4625    2.4251    3.7624 H       1  UNL1        0.0000
     39 H          16.2585    3.5813   -0.5007 H       1  UNL1        0.0000
     40 H          18.8273    5.0980    2.3320 H       1  UNL1        0.0000
     41 H          19.0630    1.4752    0.6549 H       1  UNL1        0.0000
     42 H          16.1309    6.0545   -0.4722 H       1  UNL1        0.0000
     43 H          17.0696    6.0990    1.0153 H       1  UNL1        0.0000
     44 H          15.4681    5.3820    1.0169 H       1  UNL1        0.0000
     45 H          17.8834    4.8751   -1.7617 H       1  UNL1        0.0000
     46 H          18.9413    4.9958   -0.3618 H       1  UNL1        0.0000
     47 H          18.6633    3.4282   -1.1246 H       1  UNL1        0.0000
     48 H          21.0817    4.2112    2.5152 H       1  UNL1        0.0000
     49 H          20.5051    2.5594    2.3305 H       1  UNL1        0.0000
     50 H          20.3947    3.6870    0.9808 H       1  UNL1        0.0000
     51 H          19.7118    4.4163    4.5262 H       1  UNL1        0.0000
     52 H          18.9326    2.8465    4.3769 H       1  UNL1        0.0000
     53 H          17.9573    4.3200    4.4734 H       1  UNL1        0.0000
     54 H          17.6240   -0.2310   -0.3167 H       1  UNL1        0.0000
     55 H          17.1461    1.3640   -0.8855 H       1  UNL1        0.0000
     56 H          16.1857    0.5341    0.3386 H       1  UNL1        0.0000
     57 H          18.6300   -0.5542    1.9290 H       1  UNL1        0.0000
     58 H          18.8447    0.8011    3.0326 H       1  UNL1        0.0000
     59 H          17.2304    0.1708    2.7057 H       1  UNL1        0.0000
@<TRIPOS>BOND
     1    45    19    1
     2    29    12    1
     3    47    19    1
     4    31    12    1
     5    30    12    1
     6    55    24    1
     7    19    46    1
     8    19    17    1
     9    12     2    1
    10    39    17    1
    11    42    18    1
    12    54    24    1
    13    24    56    1
    14    24    23    1
    15    17    18    1
    16    17     1    1
    17    28    11    1
    18    18    43    1
    19    18    44    1
    20     2     6    1
    21    41    23    1
    22    50    21    1
    23    23     1    1
    24    23    25    1
    25    11     6    1
    26    11    10    1
    27     6     7    1
    28     1    20    1
    29     1    15    1
    30    57    25    1
    31    21    49    1
    32    21    48    1
    33    21    20    1
    34    27    10    1
    35    25    59    1
    36    25    58    1
    37    40    20    1
    38    10    15    1
    39    10     9    1
    40    20    22    1
    41     7     3    1
    42     7     8    1
    43    15    16    1
    44    15    38    1
    45     3    13    1
    46    16     5    3
    47    34    13    1
    48    32    13    1
    49     9     8    1
    50     9    26    1
    51    13    33    1
    52     8     4    1
    53    22    52    1
    54    22    53    1
    55    22    51    1
    56     4    14    1
    57    37    14    1
    58    14    36    1
    59    14    35    1
