@<TRIPOS>MOLECULE
3,5,7,9,11
 19 19 0 0 0
SMALL
GASTEIGER

@<TRIPOS>ATOM
      1 SI          3.2843    7.4892    3.3828 Si      1  UNL1        0.0000
      2 CL          5.0165    8.2315    4.1920 Cl      1  UNL1        0.0000
      3 C           3.9720    4.6916    4.0474 C.2     1  UNL1        0.0000
      4 H           4.9518    4.7487    3.5946 H       1  UNL1        0.0000
      5 C           3.4978    3.6376    4.8552 C.2     1  UNL1        0.0000
      6 H           4.0438    2.7411    5.1082 H       1  UNL1        0.0000
      7 C           2.2857    4.0550    5.4478 C.2     1  UNL1        0.0000
      8 H           1.7297    3.5139    6.1995 H       1  UNL1        0.0000
      9 C           1.9975    5.3519    4.9877 C.2     1  UNL1        0.0000
     10 H           1.1774    5.9735    5.3225 H       1  UNL1        0.0000
     11 C           3.0429    5.7688    4.1091 C.3     1  UNL1        0.0000
     12 C           1.8525    8.6408    3.8642 C.3     1  UNL1        0.0000
     13 H           0.9129    8.2793    3.4602 H       1  UNL1        0.0000
     14 H           2.0182    9.6413    3.4769 H       1  UNL1        0.0000
     15 H           1.7510    8.7213    4.9427 H       1  UNL1        0.0000
     16 C           3.5662    7.4028    1.4973 C.3     1  UNL1        0.0000
     17 H           2.7703    6.8523    1.0036 H       1  UNL1        0.0000
     18 H           4.5168    6.9354    1.2549 H       1  UNL1        0.0000
     19 H           3.5870    8.4016    1.0717 H       1  UNL1        0.0000
@<TRIPOS>BOND
     1    17    16    1
     2    19    16    1
     3    18    16    1
     4    16     1    1
     5     1    12    1
     6     1    11    1
     7     1     2    1
     8    13    12    1
     9    14    12    1
    10     4     3    1
    11    12    15    1
    12     3    11    1
    13     3     5    2
    14    11     9    1
    15     5     6    1
    16     5     7    1
    17     9    10    1
    18     9     7    2
    19     7     8    1
