@<TRIPOS>MOLECULE
3,4,6,8,10
 19 19 0 0 0
SMALL
GASTEIGER

@<TRIPOS>ATOM
      1 SI          2.0589    0.2843    2.4719 Si      1  UNL1        0.0000
      2 CL          0.2127   -0.3225    1.8897 Cl      1  UNL1        0.0000
      3 C           2.3848    1.9996    1.7651 C.3     1  UNL1        0.0000
      4 C           3.6255    2.6982    1.8069 C.2     1  UNL1        0.0000
      5 H           4.5295    2.3256    2.2670 H       1  UNL1        0.0000
      6 C           3.5326    3.8392    0.9848 C.2     1  UNL1        0.0000
      7 H           4.3488    4.4943    0.7195 H       1  UNL1        0.0000
      8 C           2.2471    3.8491    0.3986 C.2     1  UNL1        0.0000
      9 H           1.9038    4.5354   -0.3622 H       1  UNL1        0.0000
     10 C           1.5395    2.7327    0.8773 C.2     1  UNL1        0.0000
     11 H           0.5584    2.4142    0.5496 H       1  UNL1        0.0000
     12 C           3.3504   -0.9127    1.7394 C.3     1  UNL1        0.0000
     13 H           4.3609   -0.6407    2.0247 H       1  UNL1        0.0000
     14 H           3.3070   -0.9245    0.6550 H       1  UNL1        0.0000
     15 H           3.1716   -1.9251    2.0856 H       1  UNL1        0.0000
     16 C           2.1898    0.2760    4.3762 C.3     1  UNL1        0.0000
     17 H           3.2157    0.3991    4.7099 H       1  UNL1        0.0000
     18 H           1.8347   -0.6695    4.7753 H       1  UNL1        0.0000
     19 H           1.5864    1.0641    4.8201 H       1  UNL1        0.0000
@<TRIPOS>BOND
     1     9     8    1
     2     8    10    2
     3     8     6    1
     4    11    10    1
     5    14    12    1
     6     7     6    1
     7    10     3    1
     8     6     4    2
     9    12    13    1
    10    12    15    1
    11    12     1    1
    12     3     4    1
    13     3     1    1
    14     4     5    1
    15     2     1    1
    16     1    16    1
    17    16    17    1
    18    16    18    1
    19    16    19    1
