@<TRIPOS>MOLECULE
1,2,3,4,5
 10 10 0 0 0
SMALL
GASTEIGER

@<TRIPOS>ATOM
      1 C           6.0242    3.9326   -1.1346 C.3     1  UNL1       -0.0235
      2 C           6.0318    5.2745   -0.6727 C.3     1  UNL1       -0.0127
      3 C           6.6754    5.2877    0.5983 C.2     1  UNL1       -0.0837
      4 C           7.0294    3.9676    0.9339 C.2     1  UNL1       -0.0837
      5 C           6.6140    3.1232   -0.1382 C.3     1  UNL1       -0.0127
      6 H           5.7213    3.6053   -2.1211 H       1  UNL1        0.0315
      7 H           5.7984    6.1504   -1.2645 H       1  UNL1        0.0352
      8 H           6.9490    6.1828    1.1451 H       1  UNL1        0.0572
      9 H           7.6571    3.6607    1.7609 H       1  UNL1        0.0572
     10 H           6.8695    2.0755   -0.2478 H       1  UNL1        0.0352
@<TRIPOS>BOND
     1     6     1    1
     2     7     2    1
     3     1     2    1
     4     1     5    1
     5     2     3    1
     6    10     5    1
     7     5     4    1
     8     3     4    2
     9     3     8    1
    10     4     9    1
