@<TRIPOS>MOLECULE
1,2,3,4,5
 13 13 0 0 0
SMALL
GASTEIGER

@<TRIPOS>ATOM
      1 C           5.9103    3.9682   11.0990 C.3     1  UNL1        0.0167
      2 C           7.1159    4.0971   10.3675 C.2     1  UNL1       -0.0733
      3 C           7.9417    2.9954   10.6768 C.2     1  UNL1       -0.0651
      4 C           7.2484    2.1738   11.5925 C.2     1  UNL1       -0.0651
      5 C           5.9930    2.7670   11.8447 C.2     1  UNL1       -0.0733
      6 C           4.7203    4.8783   11.0161 C.3     1  UNL1       -0.0515
      7 H           7.3204    4.8623    9.6307 H       1  UNL1        0.0581
      8 H           8.8859    2.7606   10.2014 H       1  UNL1        0.0615
      9 H           7.5685    1.1991   11.9403 H       1  UNL1        0.0615
     10 H           5.1911    2.3420   12.4331 H       1  UNL1        0.0581
     11 H           4.1789    4.8841   11.9627 H       1  UNL1        0.0241
     12 H           5.0341    5.8958   10.7816 H       1  UNL1        0.0241
     13 H           4.0375    4.5401   10.2325 H       1  UNL1        0.0241
@<TRIPOS>BOND
     1     7     2    1
     2     8     3    1
     3    13     6    1
     4     2     3    2
     5     2     1    1
     6     3     4    1
     7    12     6    1
     8     6     1    1
     9     6    11    1
    10     1     5    1
    11     4     5    2
    12     4     9    1
    13     5    10    1
