@<TRIPOS>MOLECULE
1,2,3,4,5
 25 25 0 0 0
SMALL
GASTEIGER

@<TRIPOS>ATOM
      1 C          -2.0405    3.5533   14.7716 C.3     1  UNL1       -0.0053
      2 C          -0.7822    3.9875   15.2741 C.3     1  UNL1        0.0052
      3 C          -0.0820    4.6148   14.2071 C.2     1  UNL1       -0.0658
      4 C          -0.9030    4.5883   13.0543 C.2     1  UNL1       -0.0658
      5 C          -2.1127    3.9154   13.3932 C.3     1  UNL1        0.0052
      6 C          -3.1928    3.0051   15.5668 C.3     1  UNL1       -0.0574
      7 C          -0.4138    4.0707   16.7295 C.3     1  UNL1       -0.0545
      8 C           1.2489    5.3033   14.3287 C.3     1  UNL1       -0.0430
      9 C          -0.5890    5.2931   11.7636 C.3     1  UNL1       -0.0430
     10 C          -3.3839    3.8108   12.5942 C.3     1  UNL1       -0.0545
     11 H          -3.6082    2.1142   15.0927 H       1  UNL1        0.0236
     12 H          -3.9867    3.7538   15.6402 H       1  UNL1        0.0236
     13 H          -2.8807    2.7420   16.5752 H       1  UNL1        0.0236
     14 H           0.6505    4.2553   16.8547 H       1  UNL1        0.0239
     15 H          -0.9547    4.9010   17.1945 H       1  UNL1        0.0239
     16 H          -0.6784    3.1615   17.2699 H       1  UNL1        0.0239
     17 H           1.6291    5.5860   13.3478 H       1  UNL1        0.0275
     18 H           1.1573    6.2128   14.9298 H       1  UNL1        0.0275
     19 H           1.9884    4.6566   14.8073 H       1  UNL1        0.0275
     20 H          -1.4622    5.3184   11.1146 H       1  UNL1        0.0275
     21 H          -0.2931    6.3255   11.9644 H       1  UNL1        0.0275
     22 H           0.2233    4.8051   11.2183 H       1  UNL1        0.0275
     23 H          -3.2557    4.1796   11.5781 H       1  UNL1        0.0239
     24 H          -4.1661    4.4094   13.0703 H       1  UNL1        0.0239
     25 H          -3.7359    2.7778   12.5538 H       1  UNL1        0.0239
@<TRIPOS>BOND
     1    20     9    1
     2    22     9    1
     3    23    10    1
     4     9    21    1
     5     9     4    1
     6    25    10    1
     7    10    24    1
     8    10     5    1
     9     4     5    1
    10     4     3    2
    11    17     8    1
    12     5     1    1
    13     3     8    1
    14     3     2    1
    15     8    19    1
    16     8    18    1
    17     1     2    1
    18     1     6    1
    19    11     6    1
    20     2     7    1
    21     6    12    1
    22     6    13    1
    23     7    14    1
    24     7    15    1
    25     7    16    1
