@<TRIPOS>MOLECULE
1,3,5,7,9
 10 10 0 0 0
SMALL
GASTEIGER

@<TRIPOS>ATOM
      1 C           5.7269    5.2664   36.8511 C.2     1  UNL1       -0.0654
      2 H           5.7712    4.7887   35.8881 H       1  UNL1        0.0615
      3 C           5.9364    4.6394   38.0860 C.2     1  UNL1       -0.0654
      4 H           6.1734    3.5990   38.2275 H       1  UNL1        0.0615
      5 C           5.9662    5.6299   39.0830 C.2     1  UNL1       -0.0763
      6 H           6.2499    5.4821   40.1115 H       1  UNL1        0.0578
      7 C           5.7652    6.8795   38.4619 C.3     1  UNL1        0.0054
      8 H           5.9329    7.8413   38.9248 H       1  UNL1        0.0394
      9 C           5.6057    6.6514   37.0759 C.2     1  UNL1       -0.0763
     10 H           5.6069    7.4103   36.3072 H       1  UNL1        0.0578
@<TRIPOS>BOND
     1     2     1    1
     2    10     9    1
     3     1     9    2
     4     1     3    1
     5     9     7    1
     6     3     4    1
     7     3     5    2
     8     7     8    1
     9     7     5    1
    10     5     6    1
