@<TRIPOS>MOLECULE
1,3,4,7,8
 10 10 0 0 0
SMALL
GASTEIGER

@<TRIPOS>ATOM
      1 C           1.6973    7.5928   39.6890 C.2     1  UNL1       -0.0654
      2 H           1.2613    7.3924   40.6519 H       1  UNL1        0.0615
      3 C           1.0496    7.4607   38.4540 C.2     1  UNL1       -0.0654
      4 C           1.8925    7.9816   37.4570 C.2     1  UNL1       -0.0763
      5 H           0.0301    7.1457   38.3124 H       1  UNL1        0.0615
      6 H           1.6228    8.1533   36.4285 H       1  UNL1        0.0578
      7 C           3.0753    8.4324   38.0782 C.3     1  UNL1        0.0054
      8 C           2.9573    8.1804   39.4642 C.2     1  UNL1       -0.0763
      9 H           3.8243    9.0585   37.6153 H       1  UNL1        0.0394
     10 H           3.6139    8.5610   40.2329 H       1  UNL1        0.0578
@<TRIPOS>BOND
     1     6     4    1
     2     4     7    1
     3     4     3    2
     4     9     7    1
     5     7     8    1
     6     5     3    1
     7     3     1    1
     8     8     1    2
     9     8    10    1
    10     1     2    1
