@<TRIPOS>MOLECULE
1,3,5,7,9
 10 10 0 0 0
SMALL
GASTEIGER

@<TRIPOS>ATOM
      1 C           4.3941    2.7971    6.5799 C.2     1  UNL1       -0.0763
      2 H           4.5056    1.9003    7.1723 H       1  UNL1        0.0578
      3 C           3.2059    3.2373    5.9451 C.3     1  UNL1        0.0054
      4 H           2.2309    2.7752    6.0349 H       1  UNL1        0.0394
      5 C           3.4647    4.5223    5.4045 C.2     1  UNL1       -0.0763
      6 H           2.7309    5.1954    4.9832 H       1  UNL1        0.0578
      7 C           5.3753    3.7915    6.4120 C.2     1  UNL1       -0.0654
      8 H           6.3685    3.7790    6.8454 H       1  UNL1        0.0615
      9 C           4.7980    4.8597    5.6995 C.2     1  UNL1       -0.0654
     10 H           5.2548    5.8263    5.5296 H       1  UNL1        0.0615
@<TRIPOS>BOND
     1     6     5    1
     2     5     9    2
     3     5     3    1
     4    10     9    1
     5     9     7    1
     6     3     4    1
     7     3     1    1
     8     7     1    2
     9     7     8    1
    10     1     2    1
