@<TRIPOS>MOLECULE
1,3,5,7,9
 10 10 0 0 0
SMALL
GASTEIGER

@<TRIPOS>ATOM
      1 C           5.6771    2.7519    1.8110 C.3     1  UNL1       -0.0127
      2 H           5.8412    1.8509    1.2393 H       1  UNL1        0.0352
      3 C           4.7618    4.7237    2.5261 C.3     1  UNL1       -0.0127
      4 H           4.1042    5.5813    2.5935 H       1  UNL1        0.0352
      5 C           4.4891    3.5309    1.8180 C.3     1  UNL1       -0.0235
      6 H           3.6161    3.3509    1.2053 H       1  UNL1        0.0315
      7 C           6.0985    4.6687    2.9728 C.2     1  UNL1       -0.0837
      8 H           6.6470    5.4747    3.4452 H       1  UNL1        0.0572
      9 C           6.6623    3.4599    2.5223 C.2     1  UNL1       -0.0837
     10 H           7.6988    3.1659    2.6292 H       1  UNL1        0.0572
@<TRIPOS>BOND
     1     6     5    1
     2     2     1    1
     3     1     5    1
     4     1     9    1
     5     5     3    1
     6     9    10    1
     7     9     7    2
     8     3     4    1
     9     3     7    1
    10     7     8    1
