@<TRIPOS>MOLECULE
1,2,3,4,5
 10 10 0 0 0
SMALL
GASTEIGER

@<TRIPOS>ATOM
      1 C           5.2267   11.1017    4.2050 C.2     1  UNL1       -0.0763
      2 C           4.5211   11.6024    5.3385 C.3     1  UNL1        0.0054
      3 C           4.0438   12.8796    5.0234 C.2     1  UNL1       -0.0763
      4 C           4.4285   13.1693    3.6863 C.2     1  UNL1       -0.0654
      5 C           5.2127   12.0926    3.1973 C.2     1  UNL1       -0.0654
      6 H           5.8072   10.1924    4.1878 H       1  UNL1        0.0578
      7 H           4.4666   11.1189    6.3011 H       1  UNL1        0.0394
      8 H           3.5488   13.5613    5.6957 H       1  UNL1        0.0578
      9 H           4.3011   14.1231    3.1965 H       1  UNL1        0.0615
     10 H           5.7824   12.0834    2.2825 H       1  UNL1        0.0615
@<TRIPOS>BOND
     1    10     5    1
     2     9     4    1
     3     5     4    1
     4     5     1    2
     5     4     3    2
     6     6     1    1
     7     1     2    1
     8     3     2    1
     9     3     8    1
    10     2     7    1
