@<TRIPOS>MOLECULE
1,2,3,4,5
 50 54 0 0 0
SMALL
GASTEIGER

@<TRIPOS>ATOM
      1 C           0.8051    0.9948    5.1700 C.2     1  UNL1       -0.0668
      2 C           1.6789    0.0563    4.5673 C.3     1  UNL1        0.0399
      3 C           3.0225    0.4655    4.8471 C.3     1  UNL1        0.0365
      4 C           2.9582    1.7028    5.5646 C.3     1  UNL1        0.0470
      5 C           1.5719    2.0208    5.7847 C.2     1  UNL1       -0.0307
      6 C           1.2452   -1.1225    3.8125 C.ar    1  UNL1       -0.0353
      7 C           1.9638   -1.5633    2.6984 C.ar    1  UNL1       -0.0577
      8 C           1.5311   -2.6554    1.9724 C.ar    1  UNL1       -0.0615
      9 C           0.3773   -3.3284    2.3410 C.ar    1  UNL1       -0.0617
     10 C          -0.3419   -2.9017    3.4449 C.ar    1  UNL1       -0.0615
     11 C           0.0855   -1.8092    4.1752 C.ar    1  UNL1       -0.0577
     12 C           4.2335   -0.3580    4.7414 C.ar    1  UNL1       -0.0379
     13 C           5.4866    0.2109    4.5095 C.ar    1  UNL1       -0.0579
     14 C           6.6197   -0.5792    4.4697 C.ar    1  UNL1       -0.0615
     15 C           6.5278   -1.9471    4.6637 C.ar    1  UNL1       -0.0617
     16 C           5.2913   -2.5203    4.9093 C.ar    1  UNL1       -0.0615
     17 C           4.1553   -1.7356    4.9537 C.ar    1  UNL1       -0.0579
     18 C           4.0971    2.3817    6.2177 C.ar    1  UNL1       -0.0348
     19 C           4.6845    3.5021    5.6345 C.ar    1  UNL1       -0.0577
     20 C           5.7486    4.1311    6.2540 C.ar    1  UNL1       -0.0615
     21 C           6.2399    3.6451    7.4547 C.ar    1  UNL1       -0.0617
     22 C           5.6643    2.5278    8.0349 C.ar    1  UNL1       -0.0615
     23 C           4.5963    1.8978    7.4219 C.ar    1  UNL1       -0.0577
     24 C           1.0757    3.0466    6.7109 C.ar    1  UNL1       -0.0212
     25 C           1.5751    4.3482    6.6894 C.ar    1  UNL1       -0.0543
     26 C           1.1096    5.2885    7.5883 C.ar    1  UNL1       -0.0612
     27 C           0.1410    4.9484    8.5185 C.ar    1  UNL1       -0.0617
     28 C          -0.3635    3.6595    8.5445 C.ar    1  UNL1       -0.0612
     29 C           0.1004    2.7138    7.6498 C.ar    1  UNL1       -0.0543
     30 H          -0.2741    0.9124    5.2132 H       1  UNL1        0.0585
     31 H           2.8617   -1.0423    2.3958 H       1  UNL1        0.0621
     32 H           2.0944   -2.9797    1.1100 H       1  UNL1        0.0618
     33 H           0.0403   -4.1808    1.7708 H       1  UNL1        0.0618
     34 H          -1.2408   -3.4232    3.7397 H       1  UNL1        0.0618
     35 H          -0.4754   -1.4907    5.0424 H       1  UNL1        0.0621
     36 H           5.5739    1.2755    4.3501 H       1  UNL1        0.0620
     37 H           7.5805   -0.1221    4.2843 H       1  UNL1        0.0618
     38 H           7.4145   -2.5622    4.6293 H       1  UNL1        0.0618
     39 H           5.2103   -3.5847    5.0740 H       1  UNL1        0.0618
     40 H           3.1992   -2.1915    5.1661 H       1  UNL1        0.0620
     41 H           4.3026    3.8690    4.6856 H       1  UNL1        0.0621
     42 H           6.1971    5.0007    5.7971 H       1  UNL1        0.0618
     43 H           7.0727    4.1357    7.9360 H       1  UNL1        0.0618
     44 H           6.0473    2.1450    8.9693 H       1  UNL1        0.0618
     45 H           4.1451    1.0253    7.8725 H       1  UNL1        0.0621
     46 H           2.3064    4.6297    5.9452 H       1  UNL1        0.0624
     47 H           1.4989    6.2950    7.5563 H       1  UNL1        0.0618
     48 H          -0.2227    5.6862    9.2179 H       1  UNL1        0.0618
     49 H          -1.1206    3.3885    9.2659 H       1  UNL1        0.0618
     50 H          -0.2864    1.7048    7.6822 H       1  UNL1        0.0624
@<TRIPOS>BOND
     1    32     8    1
     2    33     9    1
     3     8     9   ar
     4     8     7   ar
     5     9    10   ar
     6    31     7    1
     7     7     6   ar
     8    10    34    1
     9    10    11   ar
    10     6    11   ar
    11     6     2    1
    12    11    35    1
    13    37    14    1
    14    36    13    1
    15    14    13   ar
    16    14    15   ar
    17    13    12   ar
    18     2     3    1
    19     2     1    1
    20    38    15    1
    21    15    16   ar
    22    41    19    1
    23    12     3    1
    24    12    17   ar
    25     3     4    1
    26    16    17   ar
    27    16    39    1
    28    17    40    1
    29     1    30    1
    30     1     5    2
    31     4     5    1
    32     4    18    1
    33    19    18   ar
    34    19    20   ar
    35     5    24    1
    36    42    20    1
    37    46    25    1
    38    18    23   ar
    39    20    21   ar
    40    25    24   ar
    41    25    26   ar
    42    24    29   ar
    43    23    45    1
    44    23    22   ar
    45    21    43    1
    46    21    22   ar
    47    47    26    1
    48    26    27   ar
    49    29    50    1
    50    29    28   ar
    51    22    44    1
    52    27    28   ar
    53    27    48    1
    54    28    49    1
