@<TRIPOS>MOLECULE
1,3,8,19,20
 34 34 0 0 0
SMALL
GASTEIGER

@<TRIPOS>ATOM
      1 C          12.4748   14.6498    2.0700 C.3     1  UNL1        0.0000
      2 BR         13.3017   14.6498    3.7858 Br      1  UNL1        0.0000
      3 C          12.0153   13.4669    1.4243 C.3     1  UNL1        0.0000
      4 SI         12.2106   11.6878    2.0953 Si      1  UNL1        0.0000
      5 C          14.0640   11.4418    2.4681 C.3     1  UNL1        0.0000
      6 C          11.0963   11.6077    3.6392 C.3     1  UNL1        0.0000
      7 C          11.6825   10.3933    0.8088 C.3     1  UNL1        0.0000
      8 C          11.1809   13.9422    0.3671 C.2     1  UNL1        0.0000
      9 BR          9.9374   12.9210   -0.6485 Br      1  UNL1        0.0000
     10 H          14.3574   11.8846    3.4143 H       1  UNL1        0.0000
     11 H          14.6913   11.8760    1.6904 H       1  UNL1        0.0000
     12 H          14.2970   10.3832    2.5223 H       1  UNL1        0.0000
     13 H          11.4049   12.3085    4.4091 H       1  UNL1        0.0000
     14 H          11.1395   10.6121    4.0684 H       1  UNL1        0.0000
     15 H          10.0567   11.8141    3.3976 H       1  UNL1        0.0000
     16 H          10.6046   10.3350    0.7005 H       1  UNL1        0.0000
     17 H          12.0286    9.4152    1.1276 H       1  UNL1        0.0000
     18 H          12.1064   10.5834   -0.1730 H       1  UNL1        0.0000
     19 C          12.0154   15.8326    1.4242 C.3     1  UNL1        0.0000
     20 C          11.1810   15.3572    0.3670 C.2     1  UNL1        0.0000
     21 SI         12.2108   17.6118    2.0951 Si      1  UNL1        0.0000
     22 BR          9.9376   16.3785   -0.6487 Br      1  UNL1        0.0000
     23 C          14.0641   17.8579    2.4680 C.3     1  UNL1        0.0000
     24 C          11.0965   17.6917    3.6390 C.3     1  UNL1        0.0000
     25 C          11.6823   18.9063    0.8087 C.3     1  UNL1        0.0000
     26 H          14.3574   17.4152    3.4143 H       1  UNL1        0.0000
     27 H          14.6915   17.4238    1.6904 H       1  UNL1        0.0000
     28 H          14.2969   18.9167    2.5223 H       1  UNL1        0.0000
     29 H          11.4051   16.9908    4.4089 H       1  UNL1        0.0000
     30 H          11.1395   18.6873    4.0682 H       1  UNL1        0.0000
     31 H          10.0569   17.4851    3.3973 H       1  UNL1        0.0000
     32 H          10.6044   18.9644    0.7006 H       1  UNL1        0.0000
     33 H          12.0284   19.8844    1.1277 H       1  UNL1        0.0000
     34 H          12.1061   18.7164   -0.1731 H       1  UNL1        0.0000
@<TRIPOS>BOND
     1    22    20    1
     2     9     8    1
     3    34    25    1
     4    18     7    1
     5    20     8    2
     6    20    19    1
     7     8     3    1
     8    16     7    1
     9    32    25    1
    10    25    33    1
    11    25    21    1
    12     7    17    1
    13     7     4    1
    14    19     1    1
    15    19    21    1
    16     3     1    1
    17     3     4    1
    18    27    23    1
    19    11     5    1
    20     1     2    1
    21    21    23    1
    22    21    24    1
    23     4     5    1
    24     4     6    1
    25    23    28    1
    26    23    26    1
    27     5    12    1
    28     5    10    1
    29    31    24    1
    30    15     6    1
    31    24    30    1
    32    24    29    1
    33     6    14    1
    34     6    13    1
