@<TRIPOS>MOLECULE
1,2,3,4,5
 10 10 0 0 0
SMALL
GASTEIGER

@<TRIPOS>ATOM
      1 C          -2.0306    1.2658    3.7448 C.2     1  UNL1       -0.0763
      2 C          -1.7958    2.6264    4.0192 C.2     1  UNL1       -0.0654
      3 C          -2.2335    2.8892    5.3305 C.2     1  UNL1       -0.0654
      4 C          -2.7313    1.6843    5.8756 C.2     1  UNL1       -0.0763
      5 C          -2.6156    0.6858    4.8846 C.3     1  UNL1        0.0054
      6 H          -1.9010    0.7873    2.7856 H       1  UNL1        0.0578
      7 H          -1.4735    3.3661    3.3023 H       1  UNL1        0.0615
      8 H          -2.3347    3.8710    5.7720 H       1  UNL1        0.0615
      9 H          -3.2692    1.5872    6.8091 H       1  UNL1        0.0578
     10 H          -3.0295   -0.3094    4.9441 H       1  UNL1        0.0394
@<TRIPOS>BOND
     1     6     1    1
     2     7     2    1
     3     1     2    2
     4     1     5    1
     5     2     3    1
     6     5    10    1
     7     5     4    1
     8     3     8    1
     9     3     4    2
    10     4     9    1
