@<TRIPOS>MOLECULE
1,2,3,4,5
 10 10 0 0 0
SMALL
GASTEIGER

@<TRIPOS>ATOM
      1 C           3.6356    4.9701    2.6880 C.2     1  UNL1       -0.0654
      2 C           4.1390    3.6708    2.5264 C.2     1  UNL1       -0.0654
      3 C           3.6114    3.1323    1.3140 C.2     1  UNL1       -0.0763
      4 C           2.7877    4.1050    0.7342 C.3     1  UNL1        0.0054
      5 C           2.7595    5.2345    1.6075 C.2     1  UNL1       -0.0763
      6 H           3.9316    5.6810    3.4469 H       1  UNL1        0.0615
      7 H           4.9023    3.2058    3.1336 H       1  UNL1        0.0615
      8 H           3.9324    2.2088    0.8492 H       1  UNL1        0.0578
      9 H           2.3676    4.0709   -0.2629 H       1  UNL1        0.0394
     10 H           2.3473    6.2058    1.3615 H       1  UNL1        0.0578
@<TRIPOS>BOND
     1     9     4    1
     2     4     3    1
     3     4     5    1
     4     8     3    1
     5     3     2    2
     6    10     5    1
     7     5     1    2
     8     2     1    1
     9     2     7    1
    10     1     6    1
