@<TRIPOS>MOLECULE
1,2,3,4,5
 10 10 0 0 0
SMALL
GASTEIGER

@<TRIPOS>ATOM
      1 C           5.4062    1.8038    1.7058 C.2     1  UNL1       -0.0654
      2 C           5.6309    2.8561    0.7907 C.2     1  UNL1       -0.0763
      3 C           4.6865    3.8741    1.0556 C.3     1  UNL1        0.0054
      4 C           3.8843    3.4500    2.1410 C.2     1  UNL1       -0.0763
      5 C           4.3335    2.1766    2.5449 C.2     1  UNL1       -0.0654
      6 H           6.0194    0.9171    1.8136 H       1  UNL1        0.0615
      7 H           6.4695    2.9256    0.1089 H       1  UNL1        0.0578
      8 H           4.6833    4.8662    0.6147 H       1  UNL1        0.0394
      9 H           3.1555    4.0542    2.6686 H       1  UNL1        0.0578
     10 H           3.9893    1.6311    3.4147 H       1  UNL1        0.0615
@<TRIPOS>BOND
     1     7     2    1
     2     8     3    1
     3     2     3    1
     4     2     1    2
     5     3     4    1
     6     1     6    1
     7     1     5    1
     8     4     5    2
     9     4     9    1
    10     5    10    1
