@<TRIPOS>MOLECULE
1,2,3,4,5
 10 10 0 0 0
SMALL
GASTEIGER

@<TRIPOS>ATOM
      1 C           1.1067    1.6003   -0.7788 C.3     1  UNL1       -0.0127
      2 C           0.9134    2.4950    0.2980 C.2     1  UNL1       -0.0837
      3 C           1.5722    3.7003   -0.0145 C.2     1  UNL1       -0.0837
      4 C           2.1841    3.5538   -1.2788 C.3     1  UNL1       -0.0127
      5 C           1.8916    2.2544   -1.7559 C.3     1  UNL1       -0.0235
      6 H           0.6381    0.6292   -0.8883 H       1  UNL1        0.0352
      7 H           0.2768    2.3181    1.1562 H       1  UNL1        0.0572
      8 H           1.5005    4.6253    0.5461 H       1  UNL1        0.0572
      9 H           2.6379    4.3529   -1.8535 H       1  UNL1        0.0352
     10 H           2.1140    1.8735   -2.7453 H       1  UNL1        0.0315
@<TRIPOS>BOND
     1    10     5    1
     2     9     4    1
     3     5     4    1
     4     5     1    1
     5     4     3    1
     6     6     1    1
     7     1     2    1
     8     3     2    2
     9     3     8    1
    10     2     7    1
