@<TRIPOS>MOLECULE
1,3,5,7,9
 10 10 0 0 0
SMALL
GASTEIGER

@<TRIPOS>ATOM
      1 C           0.8013    6.5996    1.8191 C.2     1  UNL1       -0.0763
      2 H           1.6747    6.0671    1.4637 H       1  UNL1        0.0578
      3 C          -0.5376    6.2558    1.5553 C.2     1  UNL1       -0.0654
      4 H          -0.8711    5.4071    0.9729 H       1  UNL1        0.0615
      5 C          -1.3582    7.3023    2.0339 C.2     1  UNL1       -0.0654
      6 H          -2.4274    7.3858    1.8828 H       1  UNL1        0.0615
      7 C          -0.5254    8.2956    2.5662 C.2     1  UNL1       -0.0763
      8 H          -0.8481    9.2758    2.8878 H       1  UNL1        0.0578
      9 C           0.8079    7.8518    2.4704 C.3     1  UNL1        0.0054
     10 H           1.6932    8.4324    2.6999 H       1  UNL1        0.0394
@<TRIPOS>BOND
     1     4     3    1
     2     2     1    1
     3     3     1    2
     4     3     5    1
     5     1     9    1
     6     6     5    1
     7     5     7    2
     8     9     7    1
     9     9    10    1
    10     7     8    1
