@<TRIPOS>MOLECULE
1,3,5,7,9
 10 10 0 0 0
SMALL
GASTEIGER

@<TRIPOS>ATOM
      1 C          -1.2205    6.5990    6.1134 C.2     1  UNL1       -0.0763
      2 H          -2.0940    6.0667    6.4686 H       1  UNL1        0.0578
      3 C           0.1183    6.2549    6.3770 C.2     1  UNL1       -0.0654
      4 H           0.4516    5.4059    6.9592 H       1  UNL1        0.0615
      5 C           0.9391    7.3014    5.8988 C.2     1  UNL1       -0.0654
      6 H           2.0083    7.3846    6.0499 H       1  UNL1        0.0615
      7 C           0.1065    8.2951    5.3668 C.2     1  UNL1       -0.0763
      8 H           0.4294    9.2753    5.0455 H       1  UNL1        0.0578
      9 C          -1.2269    7.8514    5.4624 C.3     1  UNL1        0.0054
     10 H          -2.1121    8.4323    5.2332 H       1  UNL1        0.0394
@<TRIPOS>BOND
     1     8     7    1
     2    10     9    1
     3     7     9    1
     4     7     5    2
     5     9     1    1
     6     5     6    1
     7     5     3    1
     8     1     3    2
     9     1     2    1
    10     3     4    1
