@<TRIPOS>MOLECULE
1,2,3,4,5
 25 25 0 0 0
SMALL
GASTEIGER

@<TRIPOS>ATOM
      1 C          19.1953    3.5972   15.7520 C.3     1  UNL1        0.0231
      2 C          18.8193    4.1832   14.5023 C.2     1  UNL1       -0.0584
      3 C          17.4579    3.8428   14.2415 C.2     1  UNL1       -0.0477
      4 C          17.0050    3.0186   15.3110 C.2     1  UNL1       -0.0477
      5 C          18.0732    2.8712   16.2488 C.2     1  UNL1       -0.0584
      6 C          17.9345    2.2453   17.6051 C.3     1  UNL1       -0.0424
      7 C          20.4659    3.8766   16.4999 C.3     1  UNL1       -0.0510
      8 C          19.6406    5.1836   13.7393 C.3     1  UNL1       -0.0424
      9 C          16.5684    4.4813   13.2113 C.3     1  UNL1       -0.0395
     10 C          15.5829    2.6158   15.5721 C.3     1  UNL1       -0.0395
     11 H          17.4624    2.9457   18.2995 H       1  UNL1        0.0275
     12 H          18.9048    1.9651   18.0111 H       1  UNL1        0.0275
     13 H          17.3168    1.3495   17.5504 H       1  UNL1        0.0275
     14 H          20.3586    4.7826   17.1025 H       1  UNL1        0.0242
     15 H          20.7157    3.0535   17.1676 H       1  UNL1        0.0242
     16 H          21.3030    4.0220   15.8180 H       1  UNL1        0.0242
     17 H          20.7037    4.9576   13.8155 H       1  UNL1        0.0275
     18 H          19.4802    6.1878   14.1411 H       1  UNL1        0.0275
     19 H          19.3763    5.1950   12.6820 H       1  UNL1        0.0275
     20 H          15.9446    5.2413   13.6894 H       1  UNL1        0.0278
     21 H          17.1513    4.9756   12.4356 H       1  UNL1        0.0278
     22 H          15.9081    3.7565   12.7359 H       1  UNL1        0.0278
     23 H          15.1703    3.2193   16.3845 H       1  UNL1        0.0278
     24 H          15.5235    1.5671   15.8637 H       1  UNL1        0.0278
     25 H          14.9673    2.7630   14.6872 H       1  UNL1        0.0278
@<TRIPOS>BOND
     1    21     9    1
     2    19     8    1
     3    22     9    1
     4     9    20    1
     5     9     3    1
     6     8    17    1
     7     8    18    1
     8     8     2    1
     9     3     2    2
    10     3     4    1
    11     2     1    1
    12    25    10    1
    13     4    10    1
    14     4     5    2
    15    10    24    1
    16    10    23    1
    17     1     5    1
    18     1     7    1
    19    16     7    1
    20     5     6    1
    21     7    14    1
    22     7    15    1
    23    13     6    1
    24     6    12    1
    25     6    11    1
