@<TRIPOS>MOLECULE
2,3,4,14,15
 41 42 0 0 0
SMALL
GASTEIGER

@<TRIPOS>ATOM
      1 O          -1.3155    0.7142   14.2694 O.2     1  UNL1        0.0000
      2 C          -0.1556    1.0917   14.2354 C.2     1  UNL1        0.0000
      3 C           0.7024    1.2752   13.0297 C.3     1  UNL1        0.0000
      4 C           1.7555    2.1539   13.4292 C.3     1  UNL1        0.0000
      5 C           2.6179    3.2240   12.8259 C.3     1  UNL1        0.0000
      6 H           1.9686    4.0445   12.5025 H       1  UNL1        0.0000
      7 H           3.2141    2.9053   11.9719 H       1  UNL1        0.0000
      8 C           3.4879    3.6581   14.0235 C.3     1  UNL1        0.0000
      9 H           4.3738    3.0189   14.0686 H       1  UNL1        0.0000
     10 H           3.8140    4.6935   13.9429 H       1  UNL1        0.0000
     11 C           2.6284    3.4118   15.2805 C.3     1  UNL1        0.0000
     12 H           3.2319    3.2264   16.1679 H       1  UNL1        0.0000
     13 H           1.9813    4.2724   15.4808 H       1  UNL1        0.0000
     14 C           1.7615    2.2629   14.8543 C.3     1  UNL1        0.0000
     15 C           0.7128    1.4557   15.3918 C.3     1  UNL1        0.0000
     16 SI         -0.0519    1.4988   17.1198 Si      1  UNL1        0.0000
     17 C          -1.4995    2.7375   17.0513 C.3     1  UNL1        0.0000
     18 H          -1.1647    3.7479   16.8325 H       1  UNL1        0.0000
     19 H          -2.0327    2.7635   17.9963 H       1  UNL1        0.0000
     20 H          -2.2032    2.4453   16.2781 H       1  UNL1        0.0000
     21 C          -0.6409   -0.2636   17.5350 C.3     1  UNL1        0.0000
     22 H          -1.3229   -0.6183   16.7678 H       1  UNL1        0.0000
     23 H          -1.1637   -0.2967   18.4859 H       1  UNL1        0.0000
     24 H           0.1912   -0.9626   17.5891 H       1  UNL1        0.0000
     25 C           1.2654    2.0756   18.3764 C.3     1  UNL1        0.0000
     26 H           2.1728    1.4821   18.3150 H       1  UNL1        0.0000
     27 H           0.8813    1.9780   19.3859 H       1  UNL1        0.0000
     28 H           1.5375    3.1165   18.2326 H       1  UNL1        0.0000
     29 SI         -0.0776    1.0574   11.3218 Si      1  UNL1        0.0000
     30 C          -1.5196    2.2999   11.2128 C.3     1  UNL1        0.0000
     31 H          -2.2137    2.1378   12.0315 H       1  UNL1        0.0000
     32 H          -2.0657    2.1793   10.2826 H       1  UNL1        0.0000
     33 H          -1.1779    3.3302   11.2645 H       1  UNL1        0.0000
     34 C          -0.6774   -0.7445   11.1860 C.3     1  UNL1        0.0000
     35 H          -1.3541   -0.9739   12.0039 H       1  UNL1        0.0000
     36 H           0.1513   -1.4480   11.2329 H       1  UNL1        0.0000
     37 H          -1.2086   -0.9200   10.2556 H       1  UNL1        0.0000
     38 C           1.2301    1.4288    9.9805 C.3     1  UNL1        0.0000
     39 H           0.8355    1.1820    9.0010 H       1  UNL1        0.0000
     40 H           2.1350    0.8456   10.1229 H       1  UNL1        0.0000
     41 H           1.5089    2.4777    9.9626 H       1  UNL1        0.0000
@<TRIPOS>BOND
     1    39    38    1
     2    41    38    1
     3    38    40    1
     4    38    29    1
     5    37    34    1
     6    32    30    1
     7    34    36    1
     8    34    29    1
     9    34    35    1
    10    30    33    1
    11    30    29    1
    12    30    31    1
    13    29     3    1
    14     7     5    1
    15     6     5    1
    16     5     4    1
    17     5     8    1
    18     3     4    1
    19     3     2    1
    20     4    14    1
    21    10     8    1
    22     8     9    1
    23     8    11    1
    24     2     1    2
    25     2    15    1
    26    14    11    1
    27    14    15    1
    28    11    13    1
    29    11    12    1
    30    15    16    1
    31    20    17    1
    32    22    21    1
    33    18    17    1
    34    17    16    1
    35    17    19    1
    36    16    21    1
    37    16    25    1
    38    21    24    1
    39    21    23    1
    40    28    25    1
    41    26    25    1
    42    25    27    1
