@<TRIPOS>MOLECULE
1,2,3,4,5
 10 10 0 0 0
SMALL
GASTEIGER

@<TRIPOS>ATOM
      1 C           1.6322   -1.0971    1.5320 C.3     1  UNL1       -0.0235
      2 C           0.6064   -0.1721    1.8294 C.3     1  UNL1       -0.0127
      3 C           0.6655    0.8594    0.8550 C.2     1  UNL1       -0.0837
      4 C           1.6998    0.5565   -0.0531 C.2     1  UNL1       -0.0837
      5 C           2.3136   -0.6342    0.3717 C.3     1  UNL1       -0.0127
      6 H           1.7457   -2.0798    1.9753 H       1  UNL1        0.0315
      7 H          -0.2166   -0.3324    2.5156 H       1  UNL1        0.0352
      8 H          -0.0789    1.6368    0.7286 H       1  UNL1        0.0572
      9 H           1.9316    1.0954   -0.9627 H       1  UNL1        0.0572
     10 H           3.0565   -1.1888   -0.1847 H       1  UNL1        0.0352
@<TRIPOS>BOND
     1     9     4    1
     2    10     5    1
     3     4     5    1
     4     4     3    2
     5     5     1    1
     6     8     3    1
     7     3     2    1
     8     1     2    1
     9     1     6    1
    10     2     7    1
