@<TRIPOS>MOLECULE
1,2,3,15,17
 25 25 0 0 0
SMALL
GASTEIGER

@<TRIPOS>ATOM
      1 C           0.0176    3.0958    4.1388 C.3     1  UNL1        0.0231
      2 C          -0.4253    1.9389    4.8528 C.2     1  UNL1       -0.0584
      3 C          -1.0207    2.3733    6.0638 C.2     1  UNL1       -0.0477
      4 C           0.6781    3.0958    2.7798 C.3     1  UNL1       -0.0510
      5 C          -0.2795    0.5173    4.3790 C.3     1  UNL1       -0.0424
      6 C          -1.7975    1.4951    7.0149 C.3     1  UNL1       -0.0395
      7 H           1.7680    3.0960    2.8809 H       1  UNL1        0.0242
      8 H           0.3877    2.2114    2.2135 H       1  UNL1        0.0242
      9 H          -0.5649    0.4332    3.3301 H       1  UNL1        0.0275
     10 H           0.7600    0.1919    4.4816 H       1  UNL1        0.0275
     11 H          -0.9123   -0.1499    4.9596 H       1  UNL1        0.0275
     12 H          -1.9346    1.9806    7.9793 H       1  UNL1        0.0278
     13 H          -2.7875    1.2828    6.6040 H       1  UNL1        0.0278
     14 H          -1.2869    0.5470    7.1809 H       1  UNL1        0.0278
     15 C          -0.4253    4.2526    4.8528 C.2     1  UNL1       -0.0584
     16 H           0.3875    3.9800    2.2134 H       1  UNL1        0.0242
     17 C          -1.0207    3.8182    6.0638 C.2     1  UNL1       -0.0477
     18 C          -1.7975    4.6964    7.0149 C.3     1  UNL1       -0.0395
     19 H          -1.9346    4.2110    7.9793 H       1  UNL1        0.0278
     20 H          -2.7874    4.9087    6.6040 H       1  UNL1        0.0278
     21 H          -1.2869    5.6445    7.1809 H       1  UNL1        0.0278
     22 C          -0.2795    5.6742    4.3790 C.3     1  UNL1       -0.0424
     23 H          -0.5649    5.7583    3.3301 H       1  UNL1        0.0275
     24 H           0.7600    5.9995    4.4816 H       1  UNL1        0.0275
     25 H          -0.9123    6.3414    4.9596 H       1  UNL1        0.0275
@<TRIPOS>BOND
     1    16     4    1
     2     8     4    1
     3     4     7    1
     4     4     1    1
     5    23    22    1
     6     9     5    1
     7     1    15    1
     8     1     2    1
     9     5    10    1
    10     5     2    1
    11     5    11    1
    12    22    24    1
    13    22    15    1
    14    22    25    1
    15    15    17    2
    16     2     3    2
    17     3    17    1
    18     3     6    1
    19    17    18    1
    20    20    18    1
    21    13     6    1
    22    18    21    1
    23    18    19    1
    24     6    14    1
    25     6    12    1
