@<TRIPOS>MOLECULE
2,3,4,5,6
 34 34 0 0 0
SMALL
GASTEIGER

@<TRIPOS>ATOM
      1 SI          2.5564    8.4410    8.2119 Si      1  UNL1        0.0000
      2 C           3.7517    8.0108    9.6031 C.2     1  UNL1        0.0000
      3 C           5.1818    7.9607    9.4689 C.2     1  UNL1        0.0000
      4 C           5.7341    7.6234   10.7282 C.2     1  UNL1        0.0000
      5 C           4.6614    7.4517   11.6480 C.2     1  UNL1        0.0000
      6 C           3.4489    7.6843   10.9592 C.3     1  UNL1        0.0000
      7 C           5.9431    7.9885    8.1748 C.3     1  UNL1        0.0000
      8 H           5.4240    8.5781    7.4229 H       1  UNL1        0.0000
      9 H           6.0504    6.9699    7.7923 H       1  UNL1        0.0000
     10 H           6.9436    8.3997    8.3095 H       1  UNL1        0.0000
     11 C           7.1842    7.3889   11.0404 C.3     1  UNL1        0.0000
     12 H           7.4593    7.8578   11.9878 H       1  UNL1        0.0000
     13 H           7.8223    7.7973   10.2583 H       1  UNL1        0.0000
     14 H           7.3879    6.3184   11.1207 H       1  UNL1        0.0000
     15 C           4.8022    6.9008   13.0378 C.3     1  UNL1        0.0000
     16 H           5.7827    7.1297   13.4525 H       1  UNL1        0.0000
     17 H           4.6957    5.8127   13.0148 H       1  UNL1        0.0000
     18 H           4.0400    7.2985   13.7061 H       1  UNL1        0.0000
     19 C           2.0735    7.4639   11.5183 C.3     1  UNL1        0.0000
     20 H           1.5015    8.3927   11.5596 H       1  UNL1        0.0000
     21 H           2.1333    7.0520   12.5238 H       1  UNL1        0.0000
     22 H           1.5260    6.7543   10.8972 H       1  UNL1        0.0000
     23 C           0.7269    8.6072    8.7426 C.3     1  UNL1        0.0000
     24 H           0.1408    8.9955    7.9147 H       1  UNL1        0.0000
     25 H           0.6095    9.2896    9.5782 H       1  UNL1        0.0000
     26 H           0.2925    7.6545    9.0252 H       1  UNL1        0.0000
     27 C           2.6238    7.1347    6.8133 C.3     1  UNL1        0.0000
     28 H           1.9481    7.4071    6.0089 H       1  UNL1        0.0000
     29 H           2.3254    6.1553    7.1741 H       1  UNL1        0.0000
     30 H           3.6172    7.0369    6.3891 H       1  UNL1        0.0000
     31 C           3.0806   10.1652    7.5451 C.3     1  UNL1        0.0000
     32 H           2.2302   10.7188    7.1578 H       1  UNL1        0.0000
     33 H           3.8068   10.0957    6.7398 H       1  UNL1        0.0000
     34 H           3.5260   10.7531    8.3519 H       1  UNL1        0.0000
@<TRIPOS>BOND
     1    28    27    1
     2    30    27    1
     3    33    31    1
     4    27    29    1
     5    27     1    1
     6    32    31    1
     7     8     7    1
     8    31     1    1
     9    31    34    1
    10     9     7    1
    11    24    23    1
    12     7    10    1
    13     7     3    1
    14     1    23    1
    15     1     2    1
    16    23    26    1
    17    23    25    1
    18     3     2    2
    19     3     4    1
    20     2     6    1
    21    13    11    1
    22     4    11    1
    23     4     5    2
    24    22    19    1
    25     6    19    1
    26     6     5    1
    27    11    14    1
    28    11    12    1
    29    19    20    1
    30    19    21    1
    31     5    15    1
    32    17    15    1
    33    15    16    1
    34    15    18    1
