@<TRIPOS>MOLECULE
1,2,3,4,5
 25 25 0 0 0
SMALL
GASTEIGER

@<TRIPOS>ATOM
      1 C           0.8458   -0.9124    4.0426 C.2     1  UNL1       -0.0584
      2 C           1.8580   -0.3545    4.8962 C.3     1  UNL1        0.0231
      3 C           2.9477    0.0399    4.0843 C.2     1  UNL1       -0.0584
      4 C           2.6468   -0.2988    2.7253 C.2     1  UNL1       -0.0477
      5 C           1.3705   -0.9164    2.6958 C.2     1  UNL1       -0.0477
      6 C          -0.3413   -1.7060    4.5128 C.3     1  UNL1       -0.0424
      7 H          -0.0480   -2.7395    4.7134 H       1  UNL1        0.0275
      8 H          -1.1278   -1.7148    3.7599 H       1  UNL1        0.0275
      9 H          -0.7529   -1.2849    5.4286 H       1  UNL1        0.0275
     10 C           1.8118   -0.3570    6.3956 C.3     1  UNL1       -0.0510
     11 H           2.0742   -1.3483    6.7734 H       1  UNL1        0.0242
     12 H           0.8145   -0.1112    6.7581 H       1  UNL1        0.0242
     13 H           2.5139    0.3624    6.8116 H       1  UNL1        0.0242
     14 C           4.2818    0.5440    4.5462 C.3     1  UNL1       -0.0424
     15 H           4.2324    0.9385    5.5590 H       1  UNL1        0.0275
     16 H           4.6477    1.3390    3.8952 H       1  UNL1        0.0275
     17 H           5.0118   -0.2692    4.5286 H       1  UNL1        0.0275
     18 C           3.6317   -0.2177    1.5947 C.3     1  UNL1       -0.0395
     19 H           4.2053    0.7094    1.6351 H       1  UNL1        0.0278
     20 H           3.1288   -0.2657    0.6301 H       1  UNL1        0.0278
     21 H           4.3368   -1.0509    1.6497 H       1  UNL1        0.0278
     22 C           0.7444   -1.6245    1.5309 C.3     1  UNL1       -0.0395
     23 H          -0.3414   -1.5504    1.5662 H       1  UNL1        0.0278
     24 H           1.0140   -2.6831    1.5499 H       1  UNL1        0.0278
     25 H           1.0823   -1.2054    0.5849 H       1  UNL1        0.0278
@<TRIPOS>BOND
     1    25    22    1
     2    20    18    1
     3    22    24    1
     4    22    23    1
     5    22     5    1
     6    18    19    1
     7    18    21    1
     8    18     4    1
     9     5     4    1
    10     5     1    2
    11     4     3    2
    12     8     6    1
    13    16    14    1
    14     1     6    1
    15     1     2    1
    16     3    14    1
    17     3     2    1
    18     6     7    1
    19     6     9    1
    20    17    14    1
    21    14    15    1
    22     2    10    1
    23    10    12    1
    24    10    11    1
    25    10    13    1
