@<TRIPOS>MOLECULE
1,2,3,4,5
 25 25 0 0 0
SMALL
GASTEIGER

@<TRIPOS>ATOM
      1 C          -1.7307    2.2972    1.1753 C.2     1  UNL1       -0.0658
      2 C          -0.4355    2.7460    0.8206 C.3     1  UNL1        0.0052
      3 C          -0.3132    4.1031    1.2346 C.3     1  UNL1       -0.0053
      4 C          -1.5571    4.5037    1.7926 C.3     1  UNL1        0.0052
      5 C          -2.4239    3.3765    1.7874 C.2     1  UNL1       -0.0658
      6 C          -2.3382    1.0331    0.6384 C.3     1  UNL1       -0.0430
      7 C           0.5021    1.9451   -0.0343 C.3     1  UNL1       -0.0545
      8 C           0.7745    5.0736    0.8704 C.3     1  UNL1       -0.0574
      9 C          -1.9565    5.9479    1.8908 C.3     1  UNL1       -0.0545
     10 C          -3.9106    3.3874    2.0014 C.3     1  UNL1       -0.0430
     11 H          -3.2730    0.7857    1.1344 H       1  UNL1        0.0275
     12 H          -1.6573    0.1895    0.7407 H       1  UNL1        0.0275
     13 H          -2.5482    1.1685   -0.4271 H       1  UNL1        0.0275
     14 H           0.8156    1.0277    0.4685 H       1  UNL1        0.0239
     15 H           1.3884    2.5151   -0.3052 H       1  UNL1        0.0239
     16 H          -0.0083    1.6613   -0.9573 H       1  UNL1        0.0239
     17 H           1.6454    4.5673    0.4603 H       1  UNL1        0.0236
     18 H           1.0930    5.6592    1.7337 H       1  UNL1        0.0236
     19 H           0.4043    5.7693    0.1125 H       1  UNL1        0.0236
     20 H          -1.9786    6.3687    0.8808 H       1  UNL1        0.0239
     21 H          -1.2441    6.5366    2.4672 H       1  UNL1        0.0239
     22 H          -2.9477    6.0709    2.3162 H       1  UNL1        0.0239
     23 H          -4.4131    3.5035    1.0369 H       1  UNL1        0.0275
     24 H          -4.2262    4.2124    2.6364 H       1  UNL1        0.0275
     25 H          -4.2592    2.4531    2.4421 H       1  UNL1        0.0275
@<TRIPOS>BOND
     1    16     7    1
     2    13     6    1
     3    15     7    1
     4     7    14    1
     5     7     2    1
     6    19     8    1
     7    17     8    1
     8     6    12    1
     9     6    11    1
    10     6     1    1
    11     2     1    1
    12     2     3    1
    13     8     3    1
    14     8    18    1
    15    20     9    1
    16    23    10    1
    17     1     5    2
    18     3     4    1
    19     5     4    1
    20     5    10    1
    21     4     9    1
    22     9    22    1
    23     9    21    1
    24    10    25    1
    25    10    24    1
