@<TRIPOS>MOLECULE
1,2,3,4,5
 25 25 0 0 0
SMALL
GASTEIGER

@<TRIPOS>ATOM
      1 C           0.2849    3.1562    5.3804 C.3     1  UNL1        0.0052
      2 C          -0.2370    4.4120    4.9435 C.3     1  UNL1       -0.0053
      3 C          -1.6459    4.2896    4.8562 C.3     1  UNL1        0.0052
      4 C          -1.9886    2.9366    5.1423 C.2     1  UNL1       -0.0658
      5 C          -0.7992    2.2470    5.4957 C.2     1  UNL1       -0.0658
      6 C           1.6199    2.9245    6.0272 C.3     1  UNL1       -0.0545
      7 C           0.5647    5.6814    4.8804 C.3     1  UNL1       -0.0574
      8 C          -2.6310    5.4180    4.9580 C.3     1  UNL1       -0.0545
      9 C          -3.3836    2.4692    5.4478 C.3     1  UNL1       -0.0430
     10 C          -0.6927    0.9169    6.1818 C.3     1  UNL1       -0.0430
     11 H           1.4797    2.8977    7.1116 H       1  UNL1        0.0239
     12 H           2.0545    1.9714    5.7269 H       1  UNL1        0.0239
     13 H           2.3216    3.7252    5.8034 H       1  UNL1        0.0239
     14 H           0.7870    6.0344    5.8909 H       1  UNL1        0.0236
     15 H           1.5130    5.5213    4.3643 H       1  UNL1        0.0236
     16 H           0.0220    6.4722    4.3657 H       1  UNL1        0.0236
     17 H          -2.9088    5.5297    6.0107 H       1  UNL1        0.0239
     18 H          -2.2090    6.3635    4.6300 H       1  UNL1        0.0239
     19 H          -3.5484    5.2278    4.4054 H       1  UNL1        0.0239
     20 H          -3.6550    2.7922    6.4573 H       1  UNL1        0.0275
     21 H          -4.1148    2.8917    4.7617 H       1  UNL1        0.0275
     22 H          -3.4603    1.3840    5.4153 H       1  UNL1        0.0275
     23 H          -0.5321    1.0798    7.2512 H       1  UNL1        0.0275
     24 H          -1.5965    0.3256    6.0563 H       1  UNL1        0.0275
     25 H           0.1493    0.3389    5.8007 H       1  UNL1        0.0275
@<TRIPOS>BOND
     1    15     7    1
     2    16     7    1
     3    19     8    1
     4    18     8    1
     5    21     9    1
     6     3     2    1
     7     3     8    1
     8     3     4    1
     9     7     2    1
    10     7    14    1
    11     2     1    1
    12     8    17    1
    13     4     9    1
    14     4     5    2
    15     1     5    1
    16     1     6    1
    17    22     9    1
    18     9    20    1
    19     5    10    1
    20    12     6    1
    21    25    10    1
    22    13     6    1
    23     6    11    1
    24    24    10    1
    25    10    23    1
