@<TRIPOS>MOLECULE
1,2,3,4,5
 10 10 0 0 0
SMALL
GASTEIGER

@<TRIPOS>ATOM
      1 C          -2.5536   13.2768   23.1470 C.2     1  UNL1       -0.0763
      2 C          -2.0724   13.3599   21.8258 C.2     1  UNL1       -0.0654
      3 C          -1.4315   14.6039   21.6673 C.2     1  UNL1       -0.0654
      4 C          -1.5337   15.3061   22.8829 C.2     1  UNL1       -0.0763
      5 C          -2.2096   14.4812   23.8127 C.3     1  UNL1        0.0054
      6 H          -3.2271   12.5150   23.5210 H       1  UNL1        0.0578
      7 H          -2.2827   12.6520   21.0332 H       1  UNL1        0.0615
      8 H          -1.0373   15.0055   20.7426 H       1  UNL1        0.0615
      9 H          -1.2330   16.3338   23.0423 H       1  UNL1        0.0578
     10 H          -2.5662   14.7923   24.7889 H       1  UNL1        0.0394
@<TRIPOS>BOND
     1     8     3    1
     2     7     2    1
     3     3     2    1
     4     3     4    2
     5     2     1    2
     6     4     9    1
     7     4     5    1
     8     1     6    1
     9     1     5    1
    10     5    10    1
