@<TRIPOS>MOLECULE
1,2,3,4,5
 10 10 0 0 0
SMALL
GASTEIGER

@<TRIPOS>ATOM
      1 C           0.5735   10.9223   23.7945 C.2     1  UNL1       -0.0763
      2 C          -0.1778   10.9807   22.6013 C.3     1  UNL1        0.0054
      3 C           0.5863   11.6836   21.6411 C.2     1  UNL1       -0.0763
      4 C           1.8127   12.0398   22.2370 C.2     1  UNL1       -0.0654
      5 C           1.8024   11.5849   23.5686 C.2     1  UNL1       -0.0654
      6 H           0.3350   10.3290   24.6663 H       1  UNL1        0.0578
      7 H          -1.1004   10.4431   22.4089 H       1  UNL1        0.0394
      8 H           0.3442   11.7920   20.5897 H       1  UNL1        0.0578
      9 H           2.6534   12.4922   21.7264 H       1  UNL1        0.0615
     10 H           2.6325   11.6321   24.2631 H       1  UNL1        0.0615
@<TRIPOS>BOND
     1     8     3    1
     2     3     4    2
     3     3     2    1
     4     9     4    1
     5     4     5    1
     6     7     2    1
     7     2     1    1
     8     5     1    2
     9     5    10    1
    10     1     6    1
