@<TRIPOS>MOLECULE
1,2,3,4,5
 25 25 0 0 0
SMALL
GASTEIGER

@<TRIPOS>ATOM
      1 C          -1.8295    6.7995    7.3491 C.2     1  UNL1       -0.0584
      2 C          -1.7052    5.5778    6.6335 C.2     1  UNL1       -0.0477
      3 C          -0.5505    4.9053    7.1080 C.2     1  UNL1       -0.0477
      4 C           0.0515    5.7103    8.1146 C.2     1  UNL1       -0.0584
      5 C          -0.7415    6.8836    8.2700 C.3     1  UNL1        0.0231
      6 C          -3.0162    7.7252    7.3026 C.3     1  UNL1       -0.0424
      7 H          -3.3262    7.9254    6.2768 H       1  UNL1        0.0275
      8 H          -2.7882    8.6759    7.7813 H       1  UNL1        0.0275
      9 H          -3.8630    7.2779    7.8291 H       1  UNL1        0.0275
     10 C          -2.7094    5.0138    5.6664 C.3     1  UNL1       -0.0395
     11 H          -3.4136    4.3589    6.1861 H       1  UNL1        0.0278
     12 H          -2.2224    4.4279    4.8857 H       1  UNL1        0.0278
     13 H          -3.2825    5.8088    5.1921 H       1  UNL1        0.0278
     14 C          -0.1839    3.4863    6.7674 C.3     1  UNL1       -0.0395
     15 H          -0.9165    2.7981    7.1959 H       1  UNL1        0.0278
     16 H           0.7924    3.2287    7.1745 H       1  UNL1        0.0278
     17 H          -0.1693    3.3184    5.6885 H       1  UNL1        0.0278
     18 C           1.1952    5.2767    8.9940 C.3     1  UNL1       -0.0424
     19 H           1.5549    6.1022    9.6047 H       1  UNL1        0.0275
     20 H           2.0364    4.8981    8.4081 H       1  UNL1        0.0275
     21 H           0.8754    4.4800    9.6702 H       1  UNL1        0.0275
     22 C          -0.6963    7.8495    9.4256 C.3     1  UNL1       -0.0510
     23 H          -1.4771    7.5945   10.1468 H       1  UNL1        0.0242
     24 H          -0.8707    8.8767    9.1043 H       1  UNL1        0.0242
     25 H           0.2574    7.8081    9.9456 H       1  UNL1        0.0242
@<TRIPOS>BOND
     1    12    10    1
     2    13    10    1
     3    10    11    1
     4    10     2    1
     5    17    14    1
     6     7     6    1
     7     2     3    1
     8     2     1    2
     9    14     3    1
    10    14    16    1
    11    14    15    1
    12     3     4    2
    13     6     1    1
    14     6     8    1
    15     6     9    1
    16     1     5    1
    17     4     5    1
    18     4    18    1
    19     5    22    1
    20    20    18    1
    21    18    19    1
    22    18    21    1
    23    24    22    1
    24    22    25    1
    25    22    23    1
