@<TRIPOS>MOLECULE
1,2,3,4,5
 25 25 0 0 0
SMALL
GASTEIGER

@<TRIPOS>ATOM
      1 C           1.0985    9.6759    6.1221 C.2     1  UNL1       -0.0584
      2 C           1.3966    9.3799    4.7590 C.2     1  UNL1       -0.0477
      3 C           2.4968    8.4851    4.7287 C.2     1  UNL1       -0.0477
      4 C           2.8960    8.2366    6.0675 C.2     1  UNL1       -0.0584
      5 C           2.0357    8.9697    6.9317 C.3     1  UNL1        0.0231
      6 C           0.1108   10.7245    6.5682 C.3     1  UNL1       -0.0424
      7 H           0.4590   11.7174    6.2741 H       1  UNL1        0.0275
      8 H          -0.0059   10.7225    7.6507 H       1  UNL1        0.0275
      9 H          -0.8700   10.5671    6.1127 H       1  UNL1        0.0275
     10 C           0.7913   10.0618    3.5624 C.3     1  UNL1       -0.0395
     11 H          -0.2349   10.3680    3.7601 H       1  UNL1        0.0278
     12 H           0.7931    9.4067    2.6910 H       1  UNL1        0.0278
     13 H           1.3667   10.9560    3.3079 H       1  UNL1        0.0278
     14 C           3.1799    8.0197    3.4716 C.3     1  UNL1       -0.0395
     15 H           3.8620    7.1950    3.6718 H       1  UNL1        0.0278
     16 H           3.7590    8.8331    3.0284 H       1  UNL1        0.0278
     17 H           2.4510    7.6884    2.7294 H       1  UNL1        0.0278
     18 C           4.1405    7.5316    6.5325 C.3     1  UNL1       -0.0424
     19 H           4.5917    6.9550    5.7270 H       1  UNL1        0.0275
     20 H           3.9334    6.8593    7.3675 H       1  UNL1        0.0275
     21 H           4.8799    8.2603    6.8736 H       1  UNL1        0.0275
     22 C           2.3375    9.2073    8.3867 C.3     1  UNL1       -0.0510
     23 H           2.5354    8.2748    8.9160 H       1  UNL1        0.0242
     24 H           1.5231    9.7253    8.8865 H       1  UNL1        0.0242
     25 H           3.2320    9.8293    8.4794 H       1  UNL1        0.0242
@<TRIPOS>BOND
     1    12    10    1
     2    17    14    1
     3    16    14    1
     4    13    10    1
     5    14    15    1
     6    14     3    1
     7    10    11    1
     8    10     2    1
     9     3     2    1
    10     3     4    2
    11     2     1    2
    12    19    18    1
    13     4    18    1
    14     4     5    1
    15     9     6    1
    16     1     6    1
    17     1     5    1
    18     7     6    1
    19    18    21    1
    20    18    20    1
    21     6     8    1
    22     5    22    1
    23    22    25    1
    24    22    24    1
    25    22    23    1
