@<TRIPOS>MOLECULE
2,3,4,5,6
 34 34 0 0 0
SMALL
GASTEIGER

@<TRIPOS>ATOM
      1 SI          9.2499   10.7753    5.4855 Si      1  UNL1        0.0000
      2 C           7.8208   11.0021    4.2589 C.3     1  UNL1        0.0000
      3 C           7.9788   11.0358    2.8368 C.3     1  UNL1        0.0000
      4 C           6.7073   11.3762    2.2681 C.3     1  UNL1        0.0000
      5 C           5.7970   11.6463    3.3500 C.2     1  UNL1        0.0000
      6 C           6.4741   11.4275    4.5487 C.2     1  UNL1        0.0000
      7 C          10.1342    9.1112    5.1739 C.3     1  UNL1        0.0000
      8 H          11.0697    9.0554    5.7228 H       1  UNL1        0.0000
      9 H          10.3530    8.9308    4.1258 H       1  UNL1        0.0000
     10 H           9.4983    8.2984    5.5154 H       1  UNL1        0.0000
     11 C          10.4453   12.2539    5.2539 C.3     1  UNL1        0.0000
     12 H          11.2164   12.2295    6.0167 H       1  UNL1        0.0000
     13 H           9.9268   13.2038    5.3430 H       1  UNL1        0.0000
     14 H          10.9396   12.2407    4.2887 H       1  UNL1        0.0000
     15 C           8.7541   10.7211    7.3292 C.3     1  UNL1        0.0000
     16 H           8.0184    9.9463    7.5179 H       1  UNL1        0.0000
     17 H           8.3607   11.6634    7.6940 H       1  UNL1        0.0000
     18 H           9.6322   10.4858    7.9232 H       1  UNL1        0.0000
     19 C           9.2654   11.0373    2.0682 C.3     1  UNL1        0.0000
     20 H           9.5663   12.0634    1.8455 H       1  UNL1        0.0000
     21 H           9.1577   10.5016    1.1239 H       1  UNL1        0.0000
     22 H          10.0589   10.5614    2.6372 H       1  UNL1        0.0000
     23 C           6.5305   11.9203    0.8788 C.3     1  UNL1        0.0000
     24 H           7.1384   11.3831    0.1515 H       1  UNL1        0.0000
     25 H           6.8456   12.9673    0.8636 H       1  UNL1        0.0000
     26 H           5.4895   11.8842    0.5635 H       1  UNL1        0.0000
     27 C           4.4089   12.1723    3.1493 C.3     1  UNL1        0.0000
     28 H           3.8852   12.2803    4.0958 H       1  UNL1        0.0000
     29 H           3.8289   11.4949    2.5201 H       1  UNL1        0.0000
     30 H           4.4449   13.1474    2.6602 H       1  UNL1        0.0000
     31 C           5.9815   11.7396    5.9235 C.3     1  UNL1        0.0000
     32 H           6.0730   10.8698    6.5714 H       1  UNL1        0.0000
     33 H           4.9440   12.0652    5.9078 H       1  UNL1        0.0000
     34 H           6.5852   12.5421    6.3476 H       1  UNL1        0.0000
@<TRIPOS>BOND
     1    24    23    1
     2    26    23    1
     3    25    23    1
     4    23     4    1
     5    21    19    1
     6    20    19    1
     7    19    22    1
     8    19     3    1
     9     4     3    1
    10     4     5    1
    11    29    27    1
    12    30    27    1
    13     3     2    1
    14    27     5    1
    15    27    28    1
    16     5     6    2
    17     9     7    1
    18     2     6    1
    19     2     1    1
    20    14    11    1
    21     6    31    1
    22     7     1    1
    23     7    10    1
    24     7     8    1
    25    11    13    1
    26    11     1    1
    27    11    12    1
    28     1    15    1
    29    33    31    1
    30    31    34    1
    31    31    32    1
    32    15    16    1
    33    15    17    1
    34    15    18    1
