@<TRIPOS>MOLECULE
1,2,3,4,5
 10 10 0 0 0
SMALL
GASTEIGER

@<TRIPOS>ATOM
      1 C           1.9793    3.5839   -1.0267 C.2     1  UNL1       -0.0837
      2 C           3.3781    3.6330   -0.8795 C.2     1  UNL1       -0.0837
      3 C           3.8575    2.2994   -0.8271 C.3     1  UNL1       -0.0127
      4 C           2.7387    1.4238   -0.9779 C.3     1  UNL1       -0.0235
      5 C           1.5770    2.2268   -1.0865 C.3     1  UNL1       -0.0127
      6 H           1.3263    4.4327   -1.1878 H       1  UNL1        0.0572
      7 H           3.9931    4.5197   -0.9515 H       1  UNL1        0.0572
      8 H           4.8973    1.9971   -0.8729 H       1  UNL1        0.0352
      9 H           2.7939    0.3564   -1.1526 H       1  UNL1        0.0315
     10 H           0.5816    1.8768   -1.3250 H       1  UNL1        0.0352
@<TRIPOS>BOND
     1    10     5    1
     2     6     1    1
     3     9     4    1
     4     5     1    1
     5     5     4    1
     6     1     2    2
     7     4     3    1
     8     7     2    1
     9     2     3    1
    10     8     3    1
