@<TRIPOS>MOLECULE
3,4,6,8,10
 19 19 0 0 0
SMALL
GASTEIGER

@<TRIPOS>ATOM
      1 SI          4.5718    3.4465    1.1306 Si      1  UNL1        0.0000
      2 CL          5.3970    4.1305   -0.6207 Cl      1  UNL1        0.0000
      3 C           5.7468    2.0887    1.7335 C.2     1  UNL1        0.0000
      4 C           6.6968    2.1904    2.7885 C.3     1  UNL1        0.0000
      5 H           6.8652    3.0681    3.3992 H       1  UNL1        0.0000
      6 C           7.4837    1.0230    2.8026 C.2     1  UNL1        0.0000
      7 H           8.3414    0.8512    3.4373 H       1  UNL1        0.0000
      8 C           7.0303    0.1735    1.7722 C.2     1  UNL1        0.0000
      9 H           7.4936   -0.7484    1.4540 H       1  UNL1        0.0000
     10 C           5.9698    0.8272    1.1106 C.2     1  UNL1        0.0000
     11 H           5.4989    0.4924    0.1938 H       1  UNL1        0.0000
     12 C           4.5568    4.8737    2.3908 C.3     1  UNL1        0.0000
     13 H           3.8700    5.6531    2.0753 H       1  UNL1        0.0000
     14 H           5.5380    5.3289    2.4978 H       1  UNL1        0.0000
     15 H           4.2326    4.5229    3.3663 H       1  UNL1        0.0000
     16 C           2.8430    2.7525    0.7450 C.3     1  UNL1        0.0000
     17 H           2.2074    3.5118    0.2983 H       1  UNL1        0.0000
     18 H           2.3582    2.4021    1.6531 H       1  UNL1        0.0000
     19 H           2.8903    1.9132    0.0542 H       1  UNL1        0.0000
@<TRIPOS>BOND
     1     2     1    1
     2    19    16    1
     3    11    10    1
     4    17    16    1
     5    16     1    1
     6    16    18    1
     7    10     3    2
     8    10     8    1
     9     1     3    1
    10     1    12    1
    11     9     8    1
    12     3     4    1
    13     8     6    2
    14    13    12    1
    15    12    14    1
    16    12    15    1
    17     4     6    1
    18     4     5    1
    19     6     7    1
