@<TRIPOS>MOLECULE
1,2,3,4,5
 25 25 0 0 0
SMALL
GASTEIGER

@<TRIPOS>ATOM
      1 C           5.3666    7.4135    0.4662 C.3     1  UNL1        0.0052
      2 C           5.0735    8.6111    1.1793 C.3     1  UNL1       -0.0053
      3 C           3.7047    8.5642    1.5706 C.3     1  UNL1        0.0052
      4 C           3.1435    7.3702    1.0559 C.2     1  UNL1       -0.0658
      5 C           4.1670    6.6517    0.3925 C.2     1  UNL1       -0.0658
      6 C           6.5860    7.1867   -0.3809 C.3     1  UNL1       -0.0545
      7 H           7.4545    7.6987    0.0263 H       1  UNL1        0.0239
      8 H           6.4043    7.5778   -1.3861 H       1  UNL1        0.0239
      9 H           6.8279    6.1314   -0.4659 H       1  UNL1        0.0239
     10 C           5.9612    9.8108    1.3445 C.3     1  UNL1       -0.0574
     11 H           6.1150   10.0329    2.4034 H       1  UNL1        0.0236
     12 H           5.4976   10.6801    0.8741 H       1  UNL1        0.0236
     13 H           6.9304    9.6497    0.8777 H       1  UNL1        0.0236
     14 C           2.9556    9.7056    2.1933 C.3     1  UNL1       -0.0545
     15 H           2.1117    9.3551    2.7872 H       1  UNL1        0.0239
     16 H           2.5669   10.3683    1.4153 H       1  UNL1        0.0239
     17 H           3.6179   10.2837    2.8355 H       1  UNL1        0.0239
     18 C           1.6776    7.0634    0.9521 C.3     1  UNL1       -0.0430
     19 H           1.4690    5.9993    1.0518 H       1  UNL1        0.0275
     20 H           1.3161    7.3762   -0.0316 H       1  UNL1        0.0275
     21 H           1.1002    7.6040    1.6996 H       1  UNL1        0.0275
     22 C           3.9242    5.4702   -0.5039 C.3     1  UNL1       -0.0430
     23 H           4.8429    5.1516   -0.9901 H       1  UNL1        0.0275
     24 H           3.2111    5.7475   -1.2841 H       1  UNL1        0.0275
     25 H           3.5038    4.6156    0.0295 H       1  UNL1        0.0275
@<TRIPOS>BOND
     1     8     6    1
     2    24    22    1
     3    23    22    1
     4    22    25    1
     5    22     5    1
     6     9     6    1
     7     6     7    1
     8     6     1    1
     9    20    18    1
    10     5     1    1
    11     5     4    2
    12     1     2    1
    13    12    10    1
    14    13    10    1
    15    18    19    1
    16    18     4    1
    17    18    21    1
    18     4     3    1
    19     2    10    1
    20     2     3    1
    21    10    11    1
    22    16    14    1
    23     3    14    1
    24    14    15    1
    25    14    17    1
