@<TRIPOS>MOLECULE
1,2,3,4,5
 25 25 0 0 0
SMALL
GASTEIGER

@<TRIPOS>ATOM
      1 C           2.5179    3.7731    1.7911 C.3     1  UNL1        0.0231
      2 C           1.3722    4.0497    0.9915 C.2     1  UNL1       -0.0584
      3 C           0.7551    2.8071    0.6795 C.2     1  UNL1       -0.0477
      4 C           1.5112    1.7708    1.2732 C.2     1  UNL1       -0.0477
      5 C           2.5792    2.3638    1.9905 C.2     1  UNL1       -0.0584
      6 C           3.5993    4.7324    2.1971 C.3     1  UNL1       -0.0510
      7 H           3.3282    5.7584    1.9556 H       1  UNL1        0.0242
      8 H           4.5252    4.4923    1.6693 H       1  UNL1        0.0242
      9 H           3.7899    4.6627    3.2704 H       1  UNL1        0.0242
     10 C           1.0778    5.3328    0.2694 C.3     1  UNL1       -0.0424
     11 H           0.0088    5.4785    0.1399 H       1  UNL1        0.0275
     12 H           1.5376    5.3000   -0.7228 H       1  UNL1        0.0275
     13 H           1.4781    6.1958    0.7959 H       1  UNL1        0.0275
     14 C          -0.3280    2.6336   -0.3461 C.3     1  UNL1       -0.0395
     15 H          -0.6731    1.6025   -0.3875 H       1  UNL1        0.0278
     16 H           0.0567    2.8954   -1.3351 H       1  UNL1        0.0278
     17 H          -1.1851    3.2788   -0.1489 H       1  UNL1        0.0278
     18 C           1.3734    0.3070    0.9660 C.3     1  UNL1       -0.0395
     19 H           1.9323   -0.3011    1.6749 H       1  UNL1        0.0278
     20 H           1.7794    0.1082   -0.0294 H       1  UNL1        0.0278
     21 H           0.3353   -0.0242    0.9692 H       1  UNL1        0.0278
     22 C           3.7263    1.6448    2.6385 C.3     1  UNL1       -0.0424
     23 H           4.1536    2.2547    3.4332 H       1  UNL1        0.0275
     24 H           4.5092    1.4440    1.9021 H       1  UNL1        0.0275
     25 H           3.4133    0.6914    3.0641 H       1  UNL1        0.0275
@<TRIPOS>BOND
     1    16    14    1
     2    12    10    1
     3    15    14    1
     4    14    17    1
     5    14     3    1
     6    20    18    1
     7    11    10    1
     8    10    13    1
     9    10     2    1
    10     3     2    2
    11     3     4    1
    12    18    21    1
    13    18     4    1
    14    18    19    1
    15     2     1    1
    16     4     5    2
    17     8     6    1
    18     1     5    1
    19     1     6    1
    20    24    22    1
    21     7     6    1
    22     5    22    1
    23     6     9    1
    24    22    25    1
    25    22    23    1
