@<TRIPOS>MOLECULE
1,2,3,4,9
 25 25 0 0 0
SMALL
GASTEIGER

@<TRIPOS>ATOM
      1 C          15.1332    5.1678   13.0893 C.3     1  UNL1       -0.0053
      2 C          16.4500    5.0114   13.6072 C.3     1  UNL1        0.0052
      3 C          17.1776    6.1990   13.3124 C.2     1  UNL1       -0.0658
      4 C          15.0351    6.4579   12.4959 C.3     1  UNL1        0.0052
      5 C          18.4938    6.6245   13.9124 C.3     1  UNL1       -0.0430
      6 H          18.3413    7.5122   14.5309 H       1  UNL1        0.0275
      7 H          19.2463    6.8779   13.1624 H       1  UNL1        0.0275
      8 H          18.9004    5.8445   14.5517 H       1  UNL1        0.0275
      9 C          16.3033    7.0851   12.6189 C.2     1  UNL1       -0.0658
     10 C          14.0012    4.2075   13.3231 C.3     1  UNL1       -0.0574
     11 H          13.6184    4.3094   14.3422 H       1  UNL1        0.0236
     12 H          14.3363    3.1775   13.1901 H       1  UNL1        0.0236
     13 H          13.1832    4.3982   12.6307 H       1  UNL1        0.0236
     14 C          16.8341    3.8937   14.5372 C.3     1  UNL1       -0.0545
     15 H          16.3093    4.0136   15.4887 H       1  UNL1        0.0239
     16 H          17.9004    3.8839   14.7410 H       1  UNL1        0.0239
     17 H          16.5548    2.9261   14.1200 H       1  UNL1        0.0239
     18 C          16.6057    8.5320   12.3310 C.3     1  UNL1       -0.0430
     19 H          16.4011    9.1403   13.2165 H       1  UNL1        0.0275
     20 H          15.9886    8.9184   11.5199 H       1  UNL1        0.0275
     21 H          17.6532    8.6789   12.0690 H       1  UNL1        0.0275
     22 C          13.7339    7.1420   12.1778 C.3     1  UNL1       -0.0545
     23 H          13.2128    7.3691   13.1118 H       1  UNL1        0.0239
     24 H          13.0823    6.5127   11.5763 H       1  UNL1        0.0239
     25 H          13.8911    8.0822   11.6548 H       1  UNL1        0.0239
@<TRIPOS>BOND
     1    20    18    1
     2    24    22    1
     3    25    22    1
     4    21    18    1
     5    22     4    1
     6    22    23    1
     7    18     9    1
     8    18    19    1
     9     4     9    1
    10     4     1    1
    11     9     3    2
    12    13    10    1
    13     1    10    1
    14     1     2    1
    15     7     5    1
    16    12    10    1
    17     3     2    1
    18     3     5    1
    19    10    11    1
    20     2    14    1
    21     5     6    1
    22     5     8    1
    23    17    14    1
    24    14    16    1
    25    14    15    1
