@<TRIPOS>MOLECULE
1,3,5,7,9
 10 10 0 0 0
SMALL
GASTEIGER

@<TRIPOS>ATOM
      1 C          17.0613    5.6925    8.7062 C.2     1  UNL1       -0.0763
      2 H          16.3102    5.7182    7.9303 H       1  UNL1        0.0578
      3 C          17.4546    6.7795    9.5173 C.3     1  UNL1        0.0054
      4 H          17.0832    7.7943    9.4371 H       1  UNL1        0.0394
      5 C          18.5860    6.3750   10.2628 C.2     1  UNL1       -0.0763
      6 H          19.2233    7.0288   10.8468 H       1  UNL1        0.0578
      7 C          18.8830    5.0420    9.9140 C.2     1  UNL1       -0.0654
      8 H          19.7639    4.4909   10.2082 H       1  UNL1        0.0615
      9 C          17.9354    4.6184    8.9607 C.2     1  UNL1       -0.0654
     10 H          17.9402    3.6713    8.4369 H       1  UNL1        0.0615
@<TRIPOS>BOND
     1     2     1    1
     2    10     9    1
     3     1     9    2
     4     1     3    1
     5     9     7    1
     6     4     3    1
     7     3     5    1
     8     7     8    1
     9     7     5    2
    10     5     6    1
