@<TRIPOS>MOLECULE
1,3,5,7,9
 10 10 0 0 0
SMALL
GASTEIGER

@<TRIPOS>ATOM
      1 C          11.5059    6.3135   -0.5405 C.3     1  UNL1       -0.0235
      2 H          12.5047    5.8939   -0.5525 H       1  UNL1        0.0315
      3 C           9.2970    6.6297   -1.0192 C.2     1  UNL1       -0.0837
      4 H           8.3040    6.4810   -1.4219 H       1  UNL1        0.0572
      5 C          10.3408    5.6847   -1.0293 C.3     1  UNL1       -0.0127
      6 H          10.2836    4.6848   -1.4432 H       1  UNL1        0.0352
      7 C           9.8116    7.8464   -0.5335 C.2     1  UNL1       -0.0837
      8 H           9.2791    8.7902   -0.4980 H       1  UNL1        0.0572
      9 C          11.1786    7.6553   -0.2419 C.3     1  UNL1       -0.0127
     10 H          11.8822    8.4380    0.0067 H       1  UNL1        0.0352
@<TRIPOS>BOND
     1     6     5    1
     2     4     3    1
     3     5     3    1
     4     5     1    1
     5     3     7    2
     6     2     1    1
     7     1     9    1
     8     7     8    1
     9     7     9    1
    10     9    10    1
