@<TRIPOS>MOLECULE
1,3,5,7,9
 10 10 0 0 0
SMALL
GASTEIGER

@<TRIPOS>ATOM
      1 C           7.1471    1.7866    7.0974 C.2     1  UNL1       -0.0654
      2 H           8.0634    2.1432    7.5529 H       1  UNL1        0.0615
      3 C           6.8144    0.4351    6.8599 C.2     1  UNL1       -0.0654
      4 H           7.4566   -0.4159    7.0495 H       1  UNL1        0.0615
      5 C           5.4528    0.3700    6.4787 C.2     1  UNL1       -0.0763
      6 H           4.8700   -0.5363    6.3720 H       1  UNL1        0.0578
      7 C           4.9307    1.6894    6.5094 C.3     1  UNL1        0.0054
      8 H           3.8853    1.9543    6.4072 H       1  UNL1        0.0394
      9 C           5.9722    2.5652    6.8857 C.2     1  UNL1       -0.0763
     10 H           5.8609    3.6132    7.1364 H       1  UNL1        0.0578
@<TRIPOS>BOND
     1     6     5    1
     2     8     7    1
     3     5     7    1
     4     5     3    2
     5     7     9    1
     6     3     4    1
     7     3     1    1
     8     9     1    2
     9     9    10    1
    10     1     2    1
