@<TRIPOS>MOLECULE
1,2,3,4,5
 25 25 0 0 0
SMALL
GASTEIGER

@<TRIPOS>ATOM
      1 C           1.5176    0.0696    7.6615 C.2     1  UNL1       -0.0584
      2 C           0.7334    1.0845    8.3077 C.3     1  UNL1        0.0231
      3 C           1.6230    1.9513    8.9748 C.2     1  UNL1       -0.0584
      4 C           2.9669    1.4885    8.7350 C.2     1  UNL1       -0.0477
      5 C           2.8850    0.2937    7.9688 C.2     1  UNL1       -0.0477
      6 C           0.9435   -1.1407    6.9915 C.3     1  UNL1       -0.0424
      7 C          -0.7612    1.0875    8.4012 C.3     1  UNL1       -0.0510
      8 C           1.2563    3.0653    9.9058 C.3     1  UNL1       -0.0424
      9 C           4.1795    2.0266    9.4339 C.3     1  UNL1       -0.0395
     10 C           4.0170   -0.6288    7.6334 C.3     1  UNL1       -0.0395
     11 H           1.7291   -1.7921    6.6184 H       1  UNL1        0.0275
     12 H           0.3122   -0.8589    6.1500 H       1  UNL1        0.0275
     13 H           0.3358   -1.7079    7.6986 H       1  UNL1        0.0275
     14 H          -1.2000    0.5870    7.5420 H       1  UNL1        0.0242
     15 H          -1.1481    2.1033    8.4437 H       1  UNL1        0.0242
     16 H          -1.0858    0.5633    9.3032 H       1  UNL1        0.0242
     17 H           0.2593    3.4389    9.6888 H       1  UNL1        0.0275
     18 H           1.2731    2.7105   10.9383 H       1  UNL1        0.0275
     19 H           1.9581    3.8912    9.8196 H       1  UNL1        0.0275
     20 H           5.0953    1.6889    8.9549 H       1  UNL1        0.0278
     21 H           4.1739    3.1144    9.4338 H       1  UNL1        0.0278
     22 H           4.1956    1.6891   10.4721 H       1  UNL1        0.0278
     23 H           4.0413   -1.4630    8.3374 H       1  UNL1        0.0278
     24 H           3.9085   -1.0376    6.6309 H       1  UNL1        0.0278
     25 H           4.9717   -0.1124    7.6890 H       1  UNL1        0.0278
@<TRIPOS>BOND
     1    12     6    1
     2    11     6    1
     3    24    10    1
     4     6     1    1
     5     6    13    1
     6    14     7    1
     7    10    25    1
     8    10     5    1
     9    10    23    1
    10     1     5    2
    11     1     2    1
    12     5     4    1
    13     2     7    1
    14     2     3    1
    15     7    15    1
    16     7    16    1
    17     4     3    2
    18     4     9    1
    19    20     9    1
    20     3     8    1
    21    21     9    1
    22     9    22    1
    23    17     8    1
    24    19     8    1
    25     8    18    1
