@<TRIPOS>MOLECULE
1,3,5,7,9
 25 25 0 0 0
SMALL
GASTEIGER

@<TRIPOS>ATOM
      1 C          18.2401   11.7984    7.8457 C.3     1  UNL1       -0.0053
      2 C          19.0127   12.6848    8.7756 C.3     1  UNL1       -0.0574
      3 C          18.1544   10.3809    7.9005 C.3     1  UNL1        0.0052
      4 C          18.8663    9.4629    8.8473 C.3     1  UNL1       -0.0545
      5 C          17.5316    9.9255    6.6752 C.2     1  UNL1       -0.0658
      6 C          17.4726    8.4842    6.2682 C.3     1  UNL1       -0.0430
      7 C          17.2014   11.0493    5.9016 C.2     1  UNL1       -0.0658
      8 C          16.7427   11.0462    4.4737 C.3     1  UNL1       -0.0430
      9 C          17.5873   12.2317    6.6428 C.3     1  UNL1        0.0052
     10 C          17.7158   13.6084    6.0615 C.3     1  UNL1       -0.0545
     11 H          20.0251   12.8257    8.3891 H       1  UNL1        0.0236
     12 H          19.0796   12.2475    9.7693 H       1  UNL1        0.0236
     13 H          18.5414   13.6616    8.8658 H       1  UNL1        0.0236
     14 H          19.7450    9.0390    8.3548 H       1  UNL1        0.0239
     15 H          18.2184    8.6395    9.1483 H       1  UNL1        0.0239
     16 H          19.1927    9.9910    9.7401 H       1  UNL1        0.0239
     17 H          18.4869    8.0923    6.1658 H       1  UNL1        0.0275
     18 H          16.9594    8.3611    5.3162 H       1  UNL1        0.0275
     19 H          16.9584    7.8875    7.0232 H       1  UNL1        0.0275
     20 H          16.1200   10.1806    4.2525 H       1  UNL1        0.0275
     21 H          17.6139   11.0189    3.8142 H       1  UNL1        0.0275
     22 H          16.1719   11.9435    4.2409 H       1  UNL1        0.0275
     23 H          18.7132   13.7297    5.6312 H       1  UNL1        0.0239
     24 H          17.5812   14.3720    6.8256 H       1  UNL1        0.0239
     25 H          16.9836   13.7814    5.2757 H       1  UNL1        0.0239
@<TRIPOS>BOND
     1    21     8    1
     2    22     8    1
     3    20     8    1
     4     8     7    1
     5    25    10    1
     6    18     6    1
     7    23    10    1
     8     7     9    1
     9     7     5    2
    10    10     9    1
    11    10    24    1
    12    17     6    1
    13     6     5    1
    14     6    19    1
    15     9     1    1
    16     5     3    1
    17     1     3    1
    18     1     2    1
    19     3     4    1
    20    14     4    1
    21    11     2    1
    22     2    13    1
    23     2    12    1
    24     4    15    1
    25     4    16    1
