@<TRIPOS>MOLECULE
1,2,3,4,5
 10 10 0 0 0
SMALL
GASTEIGER

@<TRIPOS>ATOM
      1 C           0.3907    3.0357   11.5329 C.2     1  UNL1       -0.0654
      2 C          -0.8012    2.6914   12.2303 C.2     1  UNL1       -0.0763
      3 C          -0.4285    2.0273   13.4215 C.3     1  UNL1        0.0054
      4 C           0.9894    1.9677   13.4626 C.2     1  UNL1       -0.0763
      5 C           1.4929    2.5982   12.3043 C.2     1  UNL1       -0.0654
      6 H           0.4474    3.6605   10.6542 H       1  UNL1        0.0615
      7 H          -1.7969    3.0242   11.9722 H       1  UNL1        0.0578
      8 H          -1.0886    1.7679   14.2358 H       1  UNL1        0.0394
      9 H           1.5788    1.6476   14.3093 H       1  UNL1        0.0578
     10 H           2.5301    2.8269   12.1124 H       1  UNL1        0.0615
@<TRIPOS>BOND
     1     6     1    1
     2     1     2    2
     3     1     5    1
     4     7     2    1
     5    10     5    1
     6     2     3    1
     7     5     4    2
     8     3     4    1
     9     3     8    1
    10     4     9    1
