@<TRIPOS>MOLECULE
2,3,5,7,9
 22 22 0 0 0
SMALL
GASTEIGER

@<TRIPOS>ATOM
      1 SI          7.0816    7.1706    2.2074 Si      1  UNL1        0.0000
      2 C           6.2403    5.6672    2.9441 C.3     1  UNL1        0.0000
      3 C           5.5634    4.6854    2.1714 C.2     1  UNL1        0.0000
      4 H           5.4279    4.7312    1.0973 H       1  UNL1        0.0000
      5 C           5.2692    3.5862    2.9903 C.2     1  UNL1        0.0000
      6 H           4.8571    2.6399    2.6648 H       1  UNL1        0.0000
      7 C           5.7697    3.8605    4.2803 C.2     1  UNL1        0.0000
      8 H           5.8055    3.1600    5.1053 H       1  UNL1        0.0000
      9 C           6.3654    5.1306    4.2553 C.2     1  UNL1        0.0000
     10 H           6.9201    5.5837    5.0679 H       1  UNL1        0.0000
     11 C           8.2334    6.6328    0.7768 C.3     1  UNL1        0.0000
     12 H           9.0105    5.9618    1.1286 H       1  UNL1        0.0000
     13 H           7.6856    6.1149   -0.0041 H       1  UNL1        0.0000
     14 H           8.7194    7.4909    0.3230 H       1  UNL1        0.0000
     15 C           5.7245    8.3200    1.4777 C.3     1  UNL1        0.0000
     16 H           4.7295    7.9134    1.6728 H       1  UNL1        0.0000
     17 H           5.8362    8.4284    0.4030 H       1  UNL1        0.0000
     18 H           5.7655    9.3163    1.9062 H       1  UNL1        0.0000
     19 C           8.1539    8.0924    3.4928 C.3     1  UNL1        0.0000
     20 H           7.5866    8.4086    4.3620 H       1  UNL1        0.0000
     21 H           8.9635    7.4603    3.8428 H       1  UNL1        0.0000
     22 H           8.5987    8.9785    3.0514 H       1  UNL1        0.0000
@<TRIPOS>BOND
     1    13    11    1
     2    14    11    1
     3    17    15    1
     4    11    12    1
     5    11     1    1
     6     4     3    1
     7    15    16    1
     8    15    18    1
     9    15     1    1
    10     3     2    1
    11     3     5    2
    12     1     2    1
    13     1    19    1
    14     6     5    1
    15     2     9    1
    16     5     7    1
    17    22    19    1
    18    19    21    1
    19    19    20    1
    20     9     7    2
    21     9    10    1
    22     7     8    1
