@<TRIPOS>MOLECULE
2,3,5,7,9
 22 22 0 0 0
SMALL
GASTEIGER

@<TRIPOS>ATOM
      1 SI          1.1157    2.9436    3.8650 Si      1  UNL1        0.0000
      2 C           1.7901    4.5245    3.1127 C.3     1  UNL1        0.0000
      3 C           1.4427    5.8560    3.4779 C.3     1  UNL1        0.0000
      4 H           0.7457    6.1173    4.2635 H       1  UNL1        0.0000
      5 C           1.9864    6.7412    2.5300 C.3     1  UNL1        0.0000
      6 H           1.7699    7.7985    2.4531 H       1  UNL1        0.0000
      7 C           2.6742    5.9714    1.5633 C.2     1  UNL1        0.0000
      8 H           3.0930    6.3492    0.6376 H       1  UNL1        0.0000
      9 C           2.5372    4.6205    1.9119 C.2     1  UNL1        0.0000
     10 H           2.8439    3.7791    1.3040 H       1  UNL1        0.0000
     11 C           0.1329    1.9707    2.5423 C.3     1  UNL1        0.0000
     12 H          -0.2624    1.0467    2.9523 H       1  UNL1        0.0000
     13 H          -0.7045    2.5501    2.1669 H       1  UNL1        0.0000
     14 H           0.7561    1.7115    1.6921 H       1  UNL1        0.0000
     15 C           2.5295    1.8074    4.4930 C.3     1  UNL1        0.0000
     16 H           2.9544    1.2268    3.6790 H       1  UNL1        0.0000
     17 H           2.1593    1.0986    5.2277 H       1  UNL1        0.0000
     18 H           3.3356    2.3752    4.9555 H       1  UNL1        0.0000
     19 C          -0.0723    3.3679    5.3018 C.3     1  UNL1        0.0000
     20 H          -0.4425    2.4632    5.7731 H       1  UNL1        0.0000
     21 H          -0.9332    3.9228    4.9428 H       1  UNL1        0.0000
     22 H           0.4078    3.9658    6.0701 H       1  UNL1        0.0000
@<TRIPOS>BOND
     1     8     7    1
     2    10     9    1
     3     7     9    2
     4     7     5    1
     5    14    11    1
     6     9     2    1
     7    13    11    1
     8     6     5    1
     9     5     3    1
    10    11    12    1
    11    11     1    1
    12     2     3    1
    13     2     1    1
    14     3     4    1
    15    16    15    1
    16     1    15    1
    17     1    19    1
    18    15    18    1
    19    15    17    1
    20    21    19    1
    21    19    20    1
    22    19    22    1
