@<TRIPOS>MOLECULE
1,2,3,4,5
 25 25 0 0 0
SMALL
GASTEIGER

@<TRIPOS>ATOM
      1 C          12.7528    5.9393    8.5049 C.3     1  UNL1        0.0052
      2 C          11.8444    6.8831    7.9105 C.2     1  UNL1       -0.0658
      3 C          12.5788    7.7050    7.0136 C.2     1  UNL1       -0.0658
      4 C          13.9616    7.2941    7.0768 C.3     1  UNL1        0.0052
      5 C          14.0706    6.2391    8.0256 C.3     1  UNL1       -0.0053
      6 C          12.4451    5.0368    9.6640 C.3     1  UNL1       -0.0545
      7 H          11.4296    4.6469    9.6017 H       1  UNL1        0.0239
      8 H          12.5461    5.5846   10.6049 H       1  UNL1        0.0239
      9 H          13.1304    4.1913    9.6806 H       1  UNL1        0.0239
     10 C          10.4283    7.0853    8.3630 C.3     1  UNL1       -0.0430
     11 H           9.8206    7.5734    7.6031 H       1  UNL1        0.0275
     12 H          10.4221    7.7119    9.2587 H       1  UNL1        0.0275
     13 H           9.9606    6.1341    8.6147 H       1  UNL1        0.0275
     14 C          12.1149    8.9857    6.3783 C.3     1  UNL1       -0.0430
     15 H          12.4286    9.0587    5.3358 H       1  UNL1        0.0275
     16 H          12.5422    9.8358    6.9163 H       1  UNL1        0.0275
     17 H          11.0308    9.0769    6.4169 H       1  UNL1        0.0275
     18 C          15.1001    8.0771    6.4895 C.3     1  UNL1       -0.0545
     19 H          15.9464    7.4354    6.2481 H       1  UNL1        0.0239
     20 H          15.4355    8.8290    7.2089 H       1  UNL1        0.0239
     21 H          14.7907    8.5910    5.5809 H       1  UNL1        0.0239
     22 C          15.3369    5.6538    8.5780 C.3     1  UNL1       -0.0574
     23 H          15.3165    4.5645    8.5380 H       1  UNL1        0.0236
     24 H          15.4534    5.9577    9.6204 H       1  UNL1        0.0236
     25 H          16.2040    6.0023    8.0206 H       1  UNL1        0.0236
@<TRIPOS>BOND
     1    15    14    1
     2    21    18    1
     3    19    18    1
     4    14    17    1
     5    14    16    1
     6    14     3    1
     7    18     4    1
     8    18    20    1
     9     3     4    1
    10     3     2    2
    11     4     5    1
    12    11    10    1
    13     2    10    1
    14     2     1    1
    15    25    22    1
    16     5     1    1
    17     5    22    1
    18    10    13    1
    19    10    12    1
    20     1     6    1
    21    23    22    1
    22    22    24    1
    23     7     6    1
    24     6     9    1
    25     6     8    1
