@<TRIPOS>MOLECULE
1,2,3,4,5
 10 10 0 0 0
SMALL
GASTEIGER

@<TRIPOS>ATOM
      1 C           6.3361    7.4542    1.4434 C.2     1  UNL1       -0.0654
      2 C           7.4528    7.3140    2.3119 C.2     1  UNL1       -0.0654
      3 C           6.9725    7.3471    3.6269 C.2     1  UNL1       -0.0763
      4 C           5.5527    7.5214    3.5847 C.3     1  UNL1        0.0054
      5 C           5.1738    7.6329    2.2316 C.2     1  UNL1       -0.0763
      6 H           6.3931    7.5611    0.3720 H       1  UNL1        0.0615
      7 H           8.4869    7.2840    2.0104 H       1  UNL1        0.0615
      8 H           7.5698    7.3331    4.5248 H       1  UNL1        0.0578
      9 H           4.9237    7.7031    4.4416 H       1  UNL1        0.0394
     10 H           4.1954    7.8936    1.8658 H       1  UNL1        0.0578
@<TRIPOS>BOND
     1     6     1    1
     2     1     5    2
     3     1     2    1
     4    10     5    1
     5     7     2    1
     6     5     4    1
     7     2     3    2
     8     4     3    1
     9     4     9    1
    10     3     8    1
