@<TRIPOS>MOLECULE
1,2,3,4,5
 25 25 0 0 0
SMALL
GASTEIGER

@<TRIPOS>ATOM
      1 C           5.9787    5.6149    2.1359 C.3     1  UNL1       -0.0053
      2 C           7.7011    4.1229    2.4199 C.2     1  UNL1       -0.0658
      3 C           7.3853    5.4631    2.0511 C.3     1  UNL1        0.0052
      4 C           6.4921    3.4341    2.6856 C.2     1  UNL1       -0.0658
      5 C           5.4271    4.3624    2.5535 C.3     1  UNL1        0.0052
      6 C           9.0609    3.5253    2.2542 C.3     1  UNL1       -0.0430
      7 H           9.7917    4.0606    2.8568 H       1  UNL1        0.0275
      8 H           9.3671    3.6036    1.2095 H       1  UNL1        0.0275
      9 H           9.0738    2.4752    2.5331 H       1  UNL1        0.0275
     10 C           8.3614    6.4102    1.4473 C.3     1  UNL1       -0.0545
     11 H           7.9969    7.4290    1.4955 H       1  UNL1        0.0239
     12 H           8.5357    6.1462    0.4011 H       1  UNL1        0.0239
     13 H           9.3132    6.3667    1.9705 H       1  UNL1        0.0239
     14 C           6.3563    1.9475    2.7625 C.3     1  UNL1       -0.0430
     15 H           7.0833    1.5041    3.4363 H       1  UNL1        0.0275
     16 H           6.5255    1.5290    1.7672 H       1  UNL1        0.0275
     17 H           5.3587    1.6521    3.0770 H       1  UNL1        0.0275
     18 C           5.2110    6.8003    1.6501 C.3     1  UNL1       -0.0574
     19 H           4.1425    6.6021    1.6546 H       1  UNL1        0.0236
     20 H           5.5086    7.0369    0.6282 H       1  UNL1        0.0236
     21 H           5.4039    7.6714    2.2734 H       1  UNL1        0.0236
     22 C           3.9742    4.0154    2.5385 C.3     1  UNL1       -0.0545
     23 H           3.7724    3.1407    3.1495 H       1  UNL1        0.0239
     24 H           3.6586    3.7975    1.5153 H       1  UNL1        0.0239
     25 H           3.3680    4.8354    2.9123 H       1  UNL1        0.0239
@<TRIPOS>BOND
     1    12    10    1
     2    20    18    1
     3     8     6    1
     4    10    11    1
     5    10    13    1
     6    10     3    1
     7    24    22    1
     8    18    19    1
     9    18     1    1
    10    18    21    1
    11    16    14    1
    12     3     1    1
    13     3     2    1
    14     1     5    1
    15     6     2    1
    16     6     9    1
    17     6     7    1
    18     2     4    2
    19    22     5    1
    20    22    25    1
    21    22    23    1
    22     5     4    1
    23     4    14    1
    24    14    17    1
    25    14    15    1
