@<TRIPOS>MOLECULE
2,3,4,5,6
 36 38 0 0 0
SMALL
GASTEIGER

@<TRIPOS>ATOM
      1 SI          9.2782    3.5119    1.8108 Si      1  UNL1        0.0000
      2 C           9.9811    5.2500    1.6526 C.3     1  UNL1        0.0000
      3 C           9.2424    6.4034    1.2679 C.2     1  UNL1        0.0000
      4 C          10.1334    7.4918    1.1491 C.2     1  UNL1        0.0000
      5 C          11.4352    7.0183    1.4345 C.2     1  UNL1        0.0000
      6 C          11.3444    5.6488    1.7503 C.2     1  UNL1        0.0000
      7 C          10.5405    2.2427    2.4620 C.3     1  UNL1        0.0000
      8 C           8.7325    2.9702    0.0707 C.ar    1  UNL1        0.0000
      9 C           9.1792    3.6180   -1.0765 C.ar    1  UNL1        0.0000
     10 C           8.7937    3.1908   -2.3348 C.ar    1  UNL1        0.0000
     11 C           7.9493    2.1021   -2.4684 C.ar    1  UNL1        0.0000
     12 C           7.4937    1.4451   -1.3372 C.ar    1  UNL1        0.0000
     13 C           7.8848    1.8774   -0.0836 C.ar    1  UNL1        0.0000
     14 C           7.6902    3.6193    2.8615 C.ar    1  UNL1        0.0000
     15 C           6.4754    3.9479    2.2598 C.ar    1  UNL1        0.0000
     16 C           5.3055    4.0185    2.9954 C.ar    1  UNL1        0.0000
     17 C           5.3264    3.7555    4.3554 C.ar    1  UNL1        0.0000
     18 C           6.5213    3.4181    4.9682 C.ar    1  UNL1        0.0000
     19 C           7.6902    3.3513    4.2283 C.ar    1  UNL1        0.0000
     20 H           8.1974    6.4039    0.9801 H       1  UNL1        0.0000
     21 H           9.8943    8.4738    0.7625 H       1  UNL1        0.0000
     22 H          12.3491    7.5912    1.3410 H       1  UNL1        0.0000
     23 H          12.1789    4.9857    1.9535 H       1  UNL1        0.0000
     24 H          10.0698    1.2754    2.6073 H       1  UNL1        0.0000
     25 H           9.8361    4.4707   -0.9797 H       1  UNL1        0.0000
     26 H          10.9688    2.5558    3.4079 H       1  UNL1        0.0000
     27 H           9.1518    3.7076   -3.2139 H       1  UNL1        0.0000
     28 H          11.3509    2.1082    1.7514 H       1  UNL1        0.0000
     29 H           7.6467    1.7663   -3.4497 H       1  UNL1        0.0000
     30 H           6.8336    0.5950   -1.4351 H       1  UNL1        0.0000
     31 H           7.5243    1.3643    0.7965 H       1  UNL1        0.0000
     32 H           6.4473    4.1385    1.1957 H       1  UNL1        0.0000
     33 H           4.3754    4.2748    2.5082 H       1  UNL1        0.0000
     34 H           4.4143    3.8072    4.9318 H       1  UNL1        0.0000
     35 H           6.5401    3.2002    6.0266 H       1  UNL1        0.0000
     36 H           8.6140    3.0794    4.7151 H       1  UNL1        0.0000
@<TRIPOS>BOND
     1    29    11    1
     2    27    10    1
     3    11    10   ar
     4    11    12   ar
     5    10     9   ar
     6    30    12    1
     7    12    13   ar
     8     9    25    1
     9     9     8   ar
    10    13     8   ar
    11    13    31    1
    12     8     1    1
    13    21     4    1
    14    20     3    1
    15     4     3    2
    16     4     5    1
    17    32    15    1
    18     3     2    1
    19    22     5    1
    20     5     6    2
    21     2     6    1
    22     2     1    1
    23     6    23    1
    24    28     7    1
    25     1     7    1
    26     1    14    1
    27    15    14   ar
    28    15    16   ar
    29     7    24    1
    30     7    26    1
    31    33    16    1
    32    14    19   ar
    33    16    17   ar
    34    19    36    1
    35    19    18   ar
    36    17    34    1
    37    17    18   ar
    38    18    35    1
