@<TRIPOS>MOLECULE
4,5,6,7,8
 16 16 0 0 0
SMALL
GASTEIGER

@<TRIPOS>ATOM
      1 BR         -0.3264    4.5346    7.2349 Br      1  UNL1        0.0000
      2 BR         -1.3030    6.0459   10.2915 Br      1  UNL1        0.0000
      3 SI          0.2876    6.1706    8.7030 Si      1  UNL1        0.0000
      4 C          -0.0246    7.6819    7.6670 C.3     1  UNL1        0.0000
      5 C          -1.2542    7.9176    6.9858 C.3     1  UNL1        0.0000
      6 C          -1.1774    9.1789    6.3657 C.3     1  UNL1        0.0000
      7 C           0.0958    9.7307    6.6521 C.2     1  UNL1        0.0000
      8 C           0.8058    8.8123    7.4443 C.2     1  UNL1        0.0000
      9 C           1.9546    5.8207    9.5108 C.3     1  UNL1        0.0000
     10 H          -2.1456    7.3045    7.0692 H       1  UNL1        0.0000
     11 H          -1.9945    9.7090    5.8955 H       1  UNL1        0.0000
     12 H           0.4229   10.7271    6.3822 H       1  UNL1        0.0000
     13 H           1.7917    8.9678    7.8722 H       1  UNL1        0.0000
     14 H           2.7463    5.6873    8.7805 H       1  UNL1        0.0000
     15 H           1.8907    4.9164   10.1113 H       1  UNL1        0.0000
     16 H           2.2327    6.6367   10.1718 H       1  UNL1        0.0000
@<TRIPOS>BOND
     1    11     6    1
     2     6     7    1
     3     6     5    1
     4    12     7    1
     5     7     8    2
     6     5    10    1
     7     5     4    1
     8     1     3    1
     9     8     4    1
    10     8    13    1
    11     4     3    1
    12     3     9    1
    13     3     2    1
    14    14     9    1
    15     9    15    1
    16     9    16    1
