@<TRIPOS>MOLECULE
4,5,6,7,8
 16 16 0 0 0
SMALL
GASTEIGER

@<TRIPOS>ATOM
      1 BR         -0.7443   10.7540    3.3510 Br      1  UNL1        0.0000
      2 BR         -2.0678    9.1927    0.4547 Br      1  UNL1        0.0000
      3 SI         -0.2662    9.1451    1.8038 Si      1  UNL1        0.0000
      4 C          -0.3597    7.6243    2.8684 C.3     1  UNL1        0.0000
      5 C           0.5452    6.5346    2.9703 C.2     1  UNL1        0.0000
      6 C          -0.0039    5.5878    3.8521 C.2     1  UNL1        0.0000
      7 C          -1.2486    6.0815    4.3151 C.3     1  UNL1        0.0000
      8 C          -1.4697    7.3353    3.7145 C.3     1  UNL1        0.0000
      9 C           1.2518    9.5736    0.7715 C.3     1  UNL1        0.0000
     10 H           1.4676    6.4227    2.4084 H       1  UNL1        0.0000
     11 H           0.4034    4.6087    4.0714 H       1  UNL1        0.0000
     12 H          -1.9665    5.5164    4.8940 H       1  UNL1        0.0000
     13 H          -2.3914    7.9062    3.7580 H       1  UNL1        0.0000
     14 H           2.1411    9.7038    1.3798 H       1  UNL1        0.0000
     15 H           1.0769   10.4974    0.2252 H       1  UNL1        0.0000
     16 H           1.4457    8.7913    0.0433 H       1  UNL1        0.0000
@<TRIPOS>BOND
     1    16     9    1
     2    15     9    1
     3     2     3    1
     4     9    14    1
     5     9     3    1
     6     3     4    1
     7     3     1    1
     8    10     5    1
     9     4     5    1
    10     4     8    1
    11     5     6    2
    12     8    13    1
    13     8     7    1
    14     6    11    1
    15     6     7    1
    16     7    12    1
