@<TRIPOS>MOLECULE
2,3,4,5,6
 36 38 0 0 0
SMALL
GASTEIGER

@<TRIPOS>ATOM
      1 SI          9.7734   10.3484    4.4255 Si      1  UNL1        0.0000
      2 C           8.9837    8.6430    4.5054 C.3     1  UNL1        0.0000
      3 C           8.0616    8.1209    3.5561 C.2     1  UNL1        0.0000
      4 C           7.5984    6.8696    4.0172 C.2     1  UNL1        0.0000
      5 C           8.2098    6.6158    5.2671 C.2     1  UNL1        0.0000
      6 C           9.0635    7.6955    5.5651 C.2     1  UNL1        0.0000
      7 C          11.0474   10.6580    5.8073 C.3     1  UNL1        0.0000
      8 C           8.3693   11.6194    4.6063 C.ar    1  UNL1        0.0000
      9 C           7.1025   11.2616    5.0564 C.ar    1  UNL1        0.0000
     10 C           6.1014   12.2060    5.1993 C.ar    1  UNL1        0.0000
     11 C           6.3516   13.5327    4.8933 C.ar    1  UNL1        0.0000
     12 C           7.6071   13.9075    4.4438 C.ar    1  UNL1        0.0000
     13 C           8.6019   12.9578    4.3040 C.ar    1  UNL1        0.0000
     14 C          10.4781   10.5801    2.6683 C.ar    1  UNL1        0.0000
     15 C          11.8168   10.3363    2.3710 C.ar    1  UNL1        0.0000
     16 C          12.3095   10.5290    1.0911 C.ar    1  UNL1        0.0000
     17 C          11.4719   10.9694    0.0803 C.ar    1  UNL1        0.0000
     18 C          10.1388   11.2235    0.3586 C.ar    1  UNL1        0.0000
     19 C           9.6518   11.0324    1.6396 C.ar    1  UNL1        0.0000
     20 H           7.6795    8.6630    2.6987 H       1  UNL1        0.0000
     21 H           6.8059    6.2797    3.5757 H       1  UNL1        0.0000
     22 H           7.9909    5.7785    5.9176 H       1  UNL1        0.0000
     23 H           9.6259    7.8277    6.4836 H       1  UNL1        0.0000
     24 H          11.5310   11.6205    5.6729 H       1  UNL1        0.0000
     25 H          11.8157    9.8926    5.8194 H       1  UNL1        0.0000
     26 H          10.5641   10.6680    6.7801 H       1  UNL1        0.0000
     27 H           6.8992   10.2275    5.2954 H       1  UNL1        0.0000
     28 H           5.1235   11.9075    5.5495 H       1  UNL1        0.0000
     29 H           5.5717   14.2722    5.0035 H       1  UNL1        0.0000
     30 H           7.8081   14.9417    4.2028 H       1  UNL1        0.0000
     31 H           9.5786   13.2535    3.9486 H       1  UNL1        0.0000
     32 H          12.4808   10.0005    3.1527 H       1  UNL1        0.0000
     33 H          13.3529   10.3413    0.8813 H       1  UNL1        0.0000
     34 H          11.8558   11.1207   -0.9180 H       1  UNL1        0.0000
     35 H           9.4804   11.5751   -0.4231 H       1  UNL1        0.0000
     36 H           8.6140   11.2494    1.8524 H       1  UNL1        0.0000
@<TRIPOS>BOND
     1    34    17    1
     2    35    18    1
     3    17    18   ar
     4    17    16   ar
     5    18    19   ar
     6    33    16    1
     7    16    15   ar
     8    19    36    1
     9    19    14   ar
    10    15    14   ar
    11    15    32    1
    12    14     1    1
    13    20     3    1
    14     3     4    2
    15     3     2    1
    16    21     4    1
    17    31    13    1
    18     4     5    1
    19    30    12    1
    20    13    12   ar
    21    13     8   ar
    22     1     2    1
    23     1     8    1
    24     1     7    1
    25    12    11   ar
    26     2     6    1
    27     8     9   ar
    28    11    29    1
    29    11    10   ar
    30     9    10   ar
    31     9    27    1
    32    10    28    1
    33     5     6    2
    34     5    22    1
    35     6    23    1
    36    24     7    1
    37     7    25    1
    38     7    26    1
