@<TRIPOS>MOLECULE
2,4,6,8,10
 22 22 0 0 0
SMALL
GASTEIGER

@<TRIPOS>ATOM
      1 SI          6.1880    1.1467    4.6641 Si      1  UNL1        0.0000
      2 C           6.9785    3.6787    3.3803 C.2     1  UNL1        0.0000
      3 H           5.9619    3.9241    3.1088 H       1  UNL1        0.0000
      4 C           8.1314    4.3549    2.9554 C.2     1  UNL1        0.0000
      5 H           8.1564    5.2072    2.2890 H       1  UNL1        0.0000
      6 C           9.2544    3.6293    3.4194 C.2     1  UNL1        0.0000
      7 H          10.2867    3.8374    3.1725 H       1  UNL1        0.0000
      8 C           8.7832    2.5039    4.1150 C.2     1  UNL1        0.0000
      9 H           9.3920    1.7005    4.5080 H       1  UNL1        0.0000
     10 C           7.3636    2.5234    4.1130 C.3     1  UNL1        0.0000
     11 C           6.8322   -0.4401    3.8080 C.3     1  UNL1        0.0000
     12 H           6.9252   -0.3094    2.7344 H       1  UNL1        0.0000
     13 H           6.1496   -1.2648    3.9813 H       1  UNL1        0.0000
     14 H           7.8046   -0.7350    4.1898 H       1  UNL1        0.0000
     15 C           6.0725    0.8326    6.5406 C.3     1  UNL1        0.0000
     16 H           5.3307    0.0677    6.7518 H       1  UNL1        0.0000
     17 H           5.7825    1.7340    7.0737 H       1  UNL1        0.0000
     18 H           7.0206    0.4991    6.9522 H       1  UNL1        0.0000
     19 C           4.4559    1.5905    3.9883 C.3     1  UNL1        0.0000
     20 H           4.4602    1.7141    2.9094 H       1  UNL1        0.0000
     21 H           4.0878    2.5104    4.4328 H       1  UNL1        0.0000
     22 H           3.7444    0.8056    4.2231 H       1  UNL1        0.0000
@<TRIPOS>BOND
     1     5     4    1
     2    12    11    1
     3    20    19    1
     4     4     2    2
     5     4     6    1
     6     3     2    1
     7     7     6    1
     8     2    10    1
     9     6     8    2
    10    11    13    1
    11    11    14    1
    12    11     1    1
    13    19    22    1
    14    19    21    1
    15    19     1    1
    16    10     8    1
    17    10     1    1
    18     8     9    1
    19     1    15    1
    20    15    16    1
    21    15    18    1
    22    15    17    1
