@<TRIPOS>MOLECULE
3,5,6,8,10
 34 34 0 0 0
SMALL
GASTEIGER

@<TRIPOS>ATOM
      1 SI         11.7357    5.0021    5.9325 Si      1  UNL1        0.0000
      2 SI          6.7831    7.7721    4.3130 Si      1  UNL1        0.0000
      3 C           9.2668    6.2165    4.8109 C.3     1  UNL1        0.0000
      4 H           9.7070    6.4326    3.8475 H       1  UNL1        0.0000
      5 C           9.9463    5.5924    5.8850 C.3     1  UNL1        0.0000
      6 C           9.1066    5.7420    7.0253 C.2     1  UNL1        0.0000
      7 H           9.3703    5.4555    8.0355 H       1  UNL1        0.0000
      8 C           7.9309    6.3859    6.6399 C.2     1  UNL1        0.0000
      9 H           7.1278    6.6872    7.3010 H       1  UNL1        0.0000
     10 C           7.9967    6.6701    5.2440 C.3     1  UNL1        0.0000
     11 C          12.6510    5.7950    4.4502 C.3     1  UNL1        0.0000
     12 H          12.5750    6.8778    4.4694 H       1  UNL1        0.0000
     13 H          12.2661    5.4554    3.4930 H       1  UNL1        0.0000
     14 H          13.7056    5.5418    4.4809 H       1  UNL1        0.0000
     15 C          11.9178    3.1006    5.8583 C.3     1  UNL1        0.0000
     16 H          11.8633    2.7185    4.8425 H       1  UNL1        0.0000
     17 H          11.1383    2.6153    6.4407 H       1  UNL1        0.0000
     18 H          12.8752    2.7926    6.2685 H       1  UNL1        0.0000
     19 C          12.5011    5.6368    7.5632 C.3     1  UNL1        0.0000
     20 H          13.5731    5.4672    7.5774 H       1  UNL1        0.0000
     21 H          12.0780    5.1225    8.4206 H       1  UNL1        0.0000
     22 H          12.3341    6.7010    7.7004 H       1  UNL1        0.0000
     23 C           7.7895    8.7540    3.0150 C.3     1  UNL1        0.0000
     24 H           8.2060    8.1107    2.2454 H       1  UNL1        0.0000
     25 H           8.6120    9.2945    3.4730 H       1  UNL1        0.0000
     26 H           7.1560    9.4814    2.5187 H       1  UNL1        0.0000
     27 C           5.3776    6.8255    3.4290 C.3     1  UNL1        0.0000
     28 H           4.9542    6.0653    4.0807 H       1  UNL1        0.0000
     29 H           5.7171    6.3414    2.5173 H       1  UNL1        0.0000
     30 H           4.5768    7.5061    3.1545 H       1  UNL1        0.0000
     31 C           6.0092    8.9698    5.5827 C.3     1  UNL1        0.0000
     32 H           5.4164    9.7305    5.0846 H       1  UNL1        0.0000
     33 H           6.7657    9.4767    6.1743 H       1  UNL1        0.0000
     34 H           5.3525    8.4403    6.2663 H       1  UNL1        0.0000
@<TRIPOS>BOND
     1    24    23    1
     2    29    27    1
     3    26    23    1
     4    23    25    1
     5    23     2    1
     6    30    27    1
     7    27    28    1
     8    27     2    1
     9    13    11    1
    10     4     3    1
    11     2    10    1
    12     2    31    1
    13    11    12    1
    14    11    14    1
    15    11     1    1
    16     3    10    1
    17     3     5    1
    18    16    15    1
    19    32    31    1
    20    10     8    1
    21    31    33    1
    22    31    34    1
    23    15     1    1
    24    15    18    1
    25    15    17    1
    26     5     1    1
    27     5     6    1
    28     1    19    1
    29     8     6    2
    30     8     9    1
    31     6     7    1
    32    19    20    1
    33    19    22    1
    34    19    21    1
