@<TRIPOS>MOLECULE
1,2,3,4,5
 25 25 0 0 0
SMALL
GASTEIGER

@<TRIPOS>ATOM
      1 C           0.8726    3.3706    3.5624 C.2     1  UNL1       -0.0584
      2 C           0.8079    2.9565    4.9274 C.3     1  UNL1        0.0231
      3 C           2.1276    2.8919    5.4386 C.2     1  UNL1       -0.0584
      4 C           3.0073    3.1949    4.3614 C.2     1  UNL1       -0.0477
      5 C           2.2334    3.5737    3.2262 C.2     1  UNL1       -0.0477
      6 C          -0.3376    3.6923    2.7510 C.3     1  UNL1       -0.0424
      7 C          -0.4664    2.8211    5.6895 C.3     1  UNL1       -0.0510
      8 C           2.5094    2.7772    6.8761 C.3     1  UNL1       -0.0424
      9 C           4.4901    3.3374    4.4530 C.3     1  UNL1       -0.0395
     10 C           2.7819    4.2774    2.0286 C.3     1  UNL1       -0.0395
     11 H          -0.0863    3.8669    1.7105 H       1  UNL1        0.0275
     12 H          -0.8286    4.5842    3.1443 H       1  UNL1        0.0275
     13 H          -1.0476    2.8704    2.7989 H       1  UNL1        0.0275
     14 H          -0.2763    2.4813    6.7015 H       1  UNL1        0.0242
     15 H          -1.1218    2.1046    5.2008 H       1  UNL1        0.0242
     16 H          -0.9829    3.7816    5.7329 H       1  UNL1        0.0242
     17 H           1.9076    2.0326    7.3877 H       1  UNL1        0.0275
     18 H           2.3531    3.7397    7.3692 H       1  UNL1        0.0275
     19 H           3.5560    2.5112    6.9804 H       1  UNL1        0.0275
     20 H           4.7621    4.3320    4.8119 H       1  UNL1        0.0278
     21 H           4.9434    3.1878    3.4768 H       1  UNL1        0.0278
     22 H           4.9086    2.6017    5.1350 H       1  UNL1        0.0278
     23 H           3.3561    5.1477    2.3504 H       1  UNL1        0.0278
     24 H           3.4378    3.6328    1.4526 H       1  UNL1        0.0278
     25 H           1.9804    4.6212    1.3806 H       1  UNL1        0.0278
@<TRIPOS>BOND
     1    25    10    1
     2    24    10    1
     3    11     6    1
     4    10    23    1
     5    10     5    1
     6     6    13    1
     7     6    12    1
     8     6     1    1
     9     5     1    2
    10     5     4    1
    11    21     9    1
    12     1     2    1
    13     4     9    1
    14     4     3    2
    15     9    20    1
    16     9    22    1
    17     2     3    1
    18     2     7    1
    19    15     7    1
    20     3     8    1
    21     7    16    1
    22     7    14    1
    23     8    19    1
    24     8    18    1
    25     8    17    1
