@<TRIPOS>MOLECULE
1,2,3,4,5
 22 22 0 0 0
SMALL
GASTEIGER

@<TRIPOS>ATOM
      1 C           3.8621    0.3791    1.9192 C.2     1  UNL1       -0.0480
      2 C           3.6386    1.1971    0.7761 C.2     1  UNL1       -0.0615
      3 C           4.2129    2.4754    1.0441 C.3     1  UNL1        0.0119
      4 C           4.7675    2.4524    2.3582 C.2     1  UNL1       -0.0615
      5 C           4.5551    1.1496    2.8902 C.2     1  UNL1       -0.0480
      6 C           3.5470   -1.0836    2.0505 C.3     1  UNL1       -0.0395
      7 C           3.0877    0.7499   -0.5538 C.3     1  UNL1       -0.0426
      8 C           5.6032    3.5466    2.9717 C.3     1  UNL1       -0.0426
      9 C           5.0796    0.6172    4.1930 C.3     1  UNL1       -0.0395
     10 H           4.3793    3.2516    0.3097 H       1  UNL1        0.0400
     11 H           3.0559   -1.2920    3.0012 H       1  UNL1        0.0278
     12 H           4.4653   -1.6733    2.0094 H       1  UNL1        0.0278
     13 H           2.8944   -1.4153    1.2458 H       1  UNL1        0.0278
     14 H           2.1350    0.2256   -0.4429 H       1  UNL1        0.0275
     15 H           3.7863    0.0687   -1.0448 H       1  UNL1        0.0275
     16 H           2.9390    1.6090   -1.2065 H       1  UNL1        0.0275
     17 H           6.6573    3.2606    2.9795 H       1  UNL1        0.0275
     18 H           5.3073    3.7531    4.0035 H       1  UNL1        0.0275
     19 H           5.5064    4.4630    2.3914 H       1  UNL1        0.0275
     20 H           4.2974    0.0942    4.7436 H       1  UNL1        0.0278
     21 H           5.4607    1.4223    4.8175 H       1  UNL1        0.0278
     22 H           5.8934   -0.0884    4.0125 H       1  UNL1        0.0278
@<TRIPOS>BOND
     1    16     7    1
     2    15     7    1
     3     7    14    1
     4     7     2    1
     5    10     3    1
     6     2     3    1
     7     2     1    2
     8     3     4    1
     9    13     6    1
    10     1     6    1
    11     1     5    1
    12    12     6    1
    13     6    11    1
    14     4     5    2
    15     4     8    1
    16    19     8    1
    17     5     9    1
    18     8    17    1
    19     8    18    1
    20    22     9    1
    21     9    20    1
    22     9    21    1
