@<TRIPOS>MOLECULE
1,2,3,4,5
 25 25 0 0 0
SMALL
GASTEIGER

@<TRIPOS>ATOM
      1 C           4.2036    0.4694    4.8140 C.2     1  UNL1       -0.0658
      2 C           4.4916    0.5466    3.4172 C.3     1  UNL1        0.0052
      3 C           5.8183    0.0349    3.2161 C.3     1  UNL1       -0.0053
      4 C           6.3344   -0.3412    4.4957 C.3     1  UNL1        0.0052
      5 C           5.3291   -0.0945    5.4688 C.2     1  UNL1       -0.0658
      6 C           2.8735    0.7764    5.4482 C.3     1  UNL1       -0.0430
      7 C           3.4847    0.8141    2.3293 C.3     1  UNL1       -0.0545
      8 C           6.4178   -0.3615    1.8936 C.3     1  UNL1       -0.0574
      9 C           7.6333   -1.0660    4.7341 C.3     1  UNL1       -0.0545
     10 C           5.4284   -0.4514    6.9246 C.3     1  UNL1       -0.0430
     11 H           2.9980    1.1398    6.4668 H       1  UNL1        0.0275
     12 H           2.2491   -0.1201    5.4788 H       1  UNL1        0.0275
     13 H           2.3350    1.5370    4.8827 H       1  UNL1        0.0275
     14 H           3.9638    1.2132    1.4381 H       1  UNL1        0.0239
     15 H           2.7247    1.5223    2.6582 H       1  UNL1        0.0239
     16 H           2.9773   -0.1136    2.0531 H       1  UNL1        0.0239
     17 H           5.9990    0.2301    1.0842 H       1  UNL1        0.0236
     18 H           6.2030   -1.4135    1.6891 H       1  UNL1        0.0236
     19 H           7.5003   -0.2350    1.8891 H       1  UNL1        0.0236
     20 H           7.9963   -0.8909    5.7461 H       1  UNL1        0.0239
     21 H           8.4017   -0.7416    4.0303 H       1  UNL1        0.0239
     22 H           7.4980   -2.1430    4.6043 H       1  UNL1        0.0239
     23 H           5.9181   -1.4177    7.0424 H       1  UNL1        0.0275
     24 H           4.4367   -0.5200    7.3664 H       1  UNL1        0.0275
     25 H           6.0047    0.2930    7.4788 H       1  UNL1        0.0275
@<TRIPOS>BOND
     1    17     8    1
     2    14     7    1
     3    18     8    1
     4    19     8    1
     5     8     3    1
     6    16     7    1
     7     7    15    1
     8     7     2    1
     9     3     2    1
    10     3     4    1
    11     2     1    1
    12    21     9    1
    13     4     9    1
    14     4     5    1
    15    22     9    1
    16     9    20    1
    17     1     6    1
    18     1     5    2
    19    13     6    1
    20     6    12    1
    21     6    11    1
    22     5    10    1
    23    10    23    1
    24    10    24    1
    25    10    25    1
