@<TRIPOS>MOLECULE
2,3,5,7,9
 22 22 0 0 0
SMALL
GASTEIGER

@<TRIPOS>ATOM
      1 SI          5.3236    7.3014    4.8470 Si      1  UNL1        0.0000
      2 C           5.4697    5.6806    3.8562 C.3     1  UNL1        0.0000
      3 C           5.7579    5.5780    2.4689 C.3     1  UNL1        0.0000
      4 H           5.8697    6.4078    1.7881 H       1  UNL1        0.0000
      5 C           5.9464    4.2169    2.1458 C.3     1  UNL1        0.0000
      6 H           6.2366    3.8237    1.1825 H       1  UNL1        0.0000
      7 C           5.8508    3.4589    3.3537 C.2     1  UNL1        0.0000
      8 H           6.0477    2.4015    3.4466 H       1  UNL1        0.0000
      9 C           5.5695    4.3490    4.3899 C.2     1  UNL1        0.0000
     10 H           5.5019    4.0998    5.4378 H       1  UNL1        0.0000
     11 C           3.9028    8.3343    4.1125 C.3     1  UNL1        0.0000
     12 H           3.8914    9.3299    4.5451 H       1  UNL1        0.0000
     13 H           2.9350    7.8836    4.3148 H       1  UNL1        0.0000
     14 H           3.9969    8.4498    3.0353 H       1  UNL1        0.0000
     15 C           5.0459    6.8855    6.6792 C.3     1  UNL1        0.0000
     16 H           5.8616    6.2957    7.0890 H       1  UNL1        0.0000
     17 H           4.1224    6.3354    6.8362 H       1  UNL1        0.0000
     18 H           4.9819    7.7977    7.2642 H       1  UNL1        0.0000
     19 C           7.0105    8.1445    4.5640 C.3     1  UNL1        0.0000
     20 H           7.0565    9.0742    5.1209 H       1  UNL1        0.0000
     21 H           7.1786    8.3815    3.5177 H       1  UNL1        0.0000
     22 H           7.8353    7.5217    4.8980 H       1  UNL1        0.0000
@<TRIPOS>BOND
     1     6     5    1
     2     4     3    1
     3     5     3    1
     4     5     7    1
     5     3     2    1
     6    14    11    1
     7     7     8    1
     8     7     9    2
     9    21    19    1
    10     2     9    1
    11     2     1    1
    12    11    13    1
    13    11    12    1
    14    11     1    1
    15     9    10    1
    16    19     1    1
    17    19    22    1
    18    19    20    1
    19     1    15    1
    20    15    17    1
    21    15    16    1
    22    15    18    1
