@<TRIPOS>MOLECULE
1,2,3,4,5
 25 25 0 0 0
SMALL
GASTEIGER

@<TRIPOS>ATOM
      1 C           6.1965    2.1981   14.3277 C.2     1  UNL1       -0.0658
      2 C           5.6582    2.4493   13.0396 C.2     1  UNL1       -0.0658
      3 C           6.2658    3.6428   12.5242 C.3     1  UNL1        0.0052
      4 C           7.1626    4.1370   13.5084 C.3     1  UNL1       -0.0053
      5 C           7.0775    3.2758   14.6501 C.3     1  UNL1        0.0052
      6 C           6.0216    0.9271   15.0960 C.3     1  UNL1       -0.0430
      7 H           6.4039    0.0919   14.5064 H       1  UNL1        0.0275
      8 H           4.9745    0.7348   15.3154 H       1  UNL1        0.0275
      9 H           6.5699    0.9608   16.0332 H       1  UNL1        0.0275
     10 C           4.8510    1.4788   12.2360 C.3     1  UNL1       -0.0430
     11 H           5.5135    0.8648   11.6213 H       1  UNL1        0.0275
     12 H           4.1573    1.9940   11.5756 H       1  UNL1        0.0275
     13 H           4.2782    0.8197   12.8836 H       1  UNL1        0.0275
     14 C           6.1387    4.1321   11.1150 C.3     1  UNL1       -0.0545
     15 H           6.3171    5.2028   11.0550 H       1  UNL1        0.0239
     16 H           5.1453    3.9281   10.7235 H       1  UNL1        0.0239
     17 H           6.8672    3.6271   10.4774 H       1  UNL1        0.0239
     18 C           8.1449    5.2529   13.3287 C.3     1  UNL1       -0.0574
     19 H           9.0917    4.8583   12.9548 H       1  UNL1        0.0236
     20 H           8.3372    5.7603   14.2706 H       1  UNL1        0.0236
     21 H           7.7756    5.9858   12.6162 H       1  UNL1        0.0236
     22 C           7.9902    3.3348   15.8369 C.3     1  UNL1       -0.0545
     23 H           7.5157    2.9091   16.7164 H       1  UNL1        0.0239
     24 H           8.2600    4.3629   16.0641 H       1  UNL1        0.0239
     25 H           8.9080    2.7788   15.6349 H       1  UNL1        0.0239
@<TRIPOS>BOND
     1    17    14    1
     2    16    14    1
     3    15    14    1
     4    14     3    1
     5    12    10    1
     6    11    10    1
     7    10    13    1
     8    10     2    1
     9     3     2    1
    10     3     4    1
    11    21    18    1
    12    19    18    1
    13     2     1    2
    14    18     4    1
    15    18    20    1
    16     4     5    1
    17     1     5    1
    18     1     6    1
    19     7     6    1
    20     5    22    1
    21     6     8    1
    22     6     9    1
    23    25    22    1
    24    22    24    1
    25    22    23    1
