@<TRIPOS>MOLECULE
1,2,3,4,5
 25 25 0 0 0
SMALL
GASTEIGER

@<TRIPOS>ATOM
      1 C           8.6474    0.7337   14.0539 C.2     1  UNL1       -0.0477
      2 C           8.1857    1.3414   12.8528 C.2     1  UNL1       -0.0477
      3 C           6.9643    2.0127   13.1200 C.2     1  UNL1       -0.0584
      4 C           6.6572    1.8054   14.4997 C.3     1  UNL1        0.0231
      5 C           7.6882    1.0077   15.0778 C.2     1  UNL1       -0.0584
      6 C           9.7815   -0.2434   14.1029 C.3     1  UNL1       -0.0395
      7 H           9.6067   -1.0548   13.3937 H       1  UNL1        0.0278
      8 H           9.8783   -0.6764   15.0940 H       1  UNL1        0.0278
      9 H          10.7256    0.2322   13.8400 H       1  UNL1        0.0278
     10 C           8.8493    1.1630   11.5243 C.3     1  UNL1       -0.0395
     11 H           9.9316    1.2366   11.6193 H       1  UNL1        0.0278
     12 H           8.5185    1.9074   10.8043 H       1  UNL1        0.0278
     13 H           8.6141    0.1750   11.1230 H       1  UNL1        0.0278
     14 C           6.0476    2.6530   12.1239 C.3     1  UNL1       -0.0424
     15 H           5.2100    1.9892   11.9006 H       1  UNL1        0.0275
     16 H           6.5642    2.8662   11.1908 H       1  UNL1        0.0275
     17 H           5.6433    3.5851   12.5137 H       1  UNL1        0.0275
     18 C           5.3766    2.1898   15.1717 C.3     1  UNL1       -0.0510
     19 H           4.9668    3.0972   14.7361 H       1  UNL1        0.0242
     20 H           5.5351    2.3601   16.2332 H       1  UNL1        0.0242
     21 H           4.6393    1.3926   15.0582 H       1  UNL1        0.0242
     22 C           7.6229    0.3960   16.4413 C.3     1  UNL1       -0.0424
     23 H           7.2882    1.1261   17.1737 H       1  UNL1        0.0275
     24 H           8.5945    0.0274   16.7517 H       1  UNL1        0.0275
     25 H           6.9178   -0.4376   16.4426 H       1  UNL1        0.0275
@<TRIPOS>BOND
     1    12    10    1
     2    13    10    1
     3    16    14    1
     4    10    11    1
     5    10     2    1
     6    15    14    1
     7    14    17    1
     8    14     3    1
     9     2     3    2
    10     2     1    1
    11     3     4    1
    12     7     6    1
    13     9     6    1
    14     1     6    1
    15     1     5    2
    16     6     8    1
    17     4     5    1
    18     4    18    1
    19    19    18    1
    20    21    18    1
    21     5    22    1
    22    18    20    1
    23    22    25    1
    24    22    24    1
    25    22    23    1
