@<TRIPOS>MOLECULE
1,2,3,4,5
 25 25 0 0 0
SMALL
GASTEIGER

@<TRIPOS>ATOM
      1 C           3.9805    6.0454    7.9695 C.2     1  UNL1       -0.0584
      2 C           3.2786    5.4355    9.0472 C.3     1  UNL1        0.0231
      3 C           2.4234    4.4374    8.5018 C.2     1  UNL1       -0.0584
      4 C           2.5819    4.4499    7.0823 C.2     1  UNL1       -0.0477
      5 C           3.5320    5.4564    6.7545 C.2     1  UNL1       -0.0477
      6 C           4.9426    7.1931    8.0897 C.3     1  UNL1       -0.0424
      7 C           3.2651    5.9613   10.4561 C.3     1  UNL1       -0.0510
      8 C           1.3179    3.7434    9.2474 C.3     1  UNL1       -0.0424
      9 C           1.6699    3.7811    6.0915 C.3     1  UNL1       -0.0395
     10 C           3.8158    5.9988    5.3810 C.3     1  UNL1       -0.0395
     11 H           4.4097    8.1470    8.0677 H       1  UNL1        0.0275
     12 H           5.6570    7.1838    7.2657 H       1  UNL1        0.0275
     13 H           5.4950    7.1343    9.0285 H       1  UNL1        0.0275
     14 H           2.9024    6.9914   10.4539 H       1  UNL1        0.0242
     15 H           4.2624    5.9636   10.8977 H       1  UNL1        0.0242
     16 H           2.6046    5.3733   11.0878 H       1  UNL1        0.0242
     17 H           0.4438    4.3975    9.3063 H       1  UNL1        0.0275
     18 H           1.6206    3.4946   10.2618 H       1  UNL1        0.0275
     19 H           1.0090    2.8282    8.7462 H       1  UNL1        0.0275
     20 H           0.9125    4.4914    5.7498 H       1  UNL1        0.0278
     21 H           1.1466    2.9383    6.5382 H       1  UNL1        0.0278
     22 H           2.2176    3.4297    5.2192 H       1  UNL1        0.0278
     23 H           3.3866    6.9991    5.2908 H       1  UNL1        0.0278
     24 H           3.3709    5.3710    4.6130 H       1  UNL1        0.0278
     25 H           4.8862    6.0794    5.1904 H       1  UNL1        0.0278
@<TRIPOS>BOND
     1    24    10    1
     2    25    10    1
     3    22     9    1
     4    23    10    1
     5    10     5    1
     6    20     9    1
     7     9    21    1
     8     9     4    1
     9     5     4    1
    10     5     1    2
    11     4     3    2
    12    12     6    1
    13     1     6    1
    14     1     2    1
    15    11     6    1
    16     6    13    1
    17     3     2    1
    18     3     8    1
    19    19     8    1
    20     2     7    1
    21     8    17    1
    22     8    18    1
    23    14     7    1
    24     7    15    1
    25     7    16    1
