@<TRIPOS>MOLECULE
4,5,6,7,8
 46 46 0 0 0
SMALL
GASTEIGER

@<TRIPOS>ATOM
      1 SI          7.7510    1.5707    7.0412 Si      1  UNL1        0.0000
      2 SI          3.5705    1.1667   10.9001 Si      1  UNL1        0.0000
      3 SI          4.4047    1.1364    5.1021 Si      1  UNL1        0.0000
      4 C           5.9436    1.6215    7.6021 C.2     1  UNL1        0.0000
      5 C           5.6598    1.6156    8.9810 C.2     1  UNL1        0.0000
      6 C           4.2553    1.5732    9.1985 C.2     1  UNL1        0.0000
      7 C           3.6657    1.5292    7.9082 C.2     1  UNL1        0.0000
      8 C           4.6795    1.5723    6.9109 C.3     1  UNL1        0.0000
      9 C           8.1761    2.1260    5.2613 C.3     1  UNL1        0.0000
     10 C           8.7747    2.5976    8.2910 C.3     1  UNL1        0.0000
     11 C           8.3030   -0.2540    7.2436 C.3     1  UNL1        0.0000
     12 C           3.6604    2.6896   12.0585 C.3     1  UNL1        0.0000
     13 C           4.6942   -0.1942   11.6388 C.3     1  UNL1        0.0000
     14 C           1.8072    0.4335   10.7987 C.3     1  UNL1        0.0000
     15 C           5.5544   -0.2907    4.5619 C.3     1  UNL1        0.0000
     16 C           2.6393    0.4188    4.8839 C.3     1  UNL1        0.0000
     17 C           4.6450    2.6535    3.9526 C.3     1  UNL1        0.0000
     18 H           6.4014    1.5710    9.7685 H       1  UNL1        0.0000
     19 H           2.6195    1.3325    7.7129 H       1  UNL1        0.0000
     20 H           8.8112    1.3919    4.7752 H       1  UNL1        0.0000
     21 H           8.7145    3.0672    5.2821 H       1  UNL1        0.0000
     22 H           7.2993    2.2777    4.6447 H       1  UNL1        0.0000
     23 H           9.7916    2.7348    7.9354 H       1  UNL1        0.0000
     24 H           8.8354    2.1080    9.2589 H       1  UNL1        0.0000
     25 H           8.3475    3.5854    8.4478 H       1  UNL1        0.0000
     26 H           9.3713   -0.3425    7.0782 H       1  UNL1        0.0000
     27 H           7.8067   -0.9115    6.5392 H       1  UNL1        0.0000
     28 H           8.0932   -0.6264    8.2409 H       1  UNL1        0.0000
     29 H           4.3034    3.4592   11.6341 H       1  UNL1        0.0000
     30 H           4.0832    2.4097   13.0185 H       1  UNL1        0.0000
     31 H           2.6886    3.1302   12.2609 H       1  UNL1        0.0000
     32 H           5.6860    0.1889   11.8576 H       1  UNL1        0.0000
     33 H           4.8093   -1.0325   10.9585 H       1  UNL1        0.0000
     34 H           4.2816   -0.5779   12.5670 H       1  UNL1        0.0000
     35 H           1.5052    0.0740   11.7768 H       1  UNL1        0.0000
     36 H           1.7787   -0.4126   10.1195 H       1  UNL1        0.0000
     37 H           1.0580    1.1451   10.4715 H       1  UNL1        0.0000
     38 H           5.2892   -0.6286    3.5645 H       1  UNL1        0.0000
     39 H           5.4601   -1.1412    5.2301 H       1  UNL1        0.0000
     40 H           6.5969    0.0013    4.5456 H       1  UNL1        0.0000
     41 H           2.4953    0.1116    3.8529 H       1  UNL1        0.0000
     42 H           1.8455    1.1163    5.1241 H       1  UNL1        0.0000
     43 H           2.5028   -0.4616    5.5041 H       1  UNL1        0.0000
     44 H           5.3216    2.4151    3.1377 H       1  UNL1        0.0000
     45 H           5.0689    3.4974    4.4946 H       1  UNL1        0.0000
     46 H           3.7134    2.9760    3.4963 H       1  UNL1        0.0000
@<TRIPOS>BOND
     1    44    17    1
     2    46    17    1
     3    38    15    1
     4    41    16    1
     5    17    45    1
     6    17     3    1
     7    40    15    1
     8    15     3    1
     9    15    39    1
    10    22     9    1
    11    20     9    1
    12    16     3    1
    13    16    42    1
    14    16    43    1
    15     3     8    1
    16     9    21    1
    17     9     1    1
    18    27    11    1
    19     8     4    1
    20     8     7    1
    21     1    11    1
    22     1     4    1
    23     1    10    1
    24    26    11    1
    25    11    28    1
    26     4     5    2
    27    19     7    1
    28     7     6    2
    29    23    10    1
    30    10    25    1
    31    10    24    1
    32     5     6    1
    33     5    18    1
    34     6     2    1
    35    36    14    1
    36    37    14    1
    37    14     2    1
    38    14    35    1
    39     2    13    1
    40     2    12    1
    41    33    13    1
    42    29    12    1
    43    13    32    1
    44    13    34    1
    45    12    31    1
    46    12    30    1
