@<TRIPOS>MOLECULE
3,4,6,8,9
 34 34 0 0 0
SMALL
GASTEIGER

@<TRIPOS>ATOM
      1 SI          0.6665    3.7917   11.8893 Si      1  UNL1        0.0000
      2 SI          5.4249    0.3330   12.4361 Si      1  UNL1        0.0000
      3 C           1.8279    2.3075   11.8974 C.3     1  UNL1        0.0000
      4 C           1.5645    1.0631   11.2622 C.2     1  UNL1        0.0000
      5 H           0.6865    0.8385   10.6684 H       1  UNL1        0.0000
      6 C           2.6652    0.2165   11.4527 C.2     1  UNL1        0.0000
      7 H           2.8032   -0.7477   10.9814 H       1  UNL1        0.0000
      8 C           3.6612    0.9180   12.1934 C.3     1  UNL1        0.0000
      9 C           3.1292    2.2120   12.4546 C.3     1  UNL1        0.0000
     10 H           3.6855    3.0451   12.8629 H       1  UNL1        0.0000
     11 C          -1.1281    3.1873   12.1283 C.3     1  UNL1        0.0000
     12 H          -1.8014    4.0160   12.3257 H       1  UNL1        0.0000
     13 H          -1.2042    2.4952   12.9647 H       1  UNL1        0.0000
     14 H          -1.4929    2.6733   11.2429 H       1  UNL1        0.0000
     15 C           1.2087    5.0524   13.2215 C.3     1  UNL1        0.0000
     16 H           2.2567    5.3209   13.1214 H       1  UNL1        0.0000
     17 H           1.0501    4.6569   14.2200 H       1  UNL1        0.0000
     18 H           0.6313    5.9671   13.1341 H       1  UNL1        0.0000
     19 C           0.8027    4.6401   10.1766 C.3     1  UNL1        0.0000
     20 H           1.8092    4.9976    9.9857 H       1  UNL1        0.0000
     21 H           0.1348    5.4926   10.1188 H       1  UNL1        0.0000
     22 H           0.5390    3.9611    9.3725 H       1  UNL1        0.0000
     23 C           6.5881    1.8447   12.5821 C.3     1  UNL1        0.0000
     24 H           7.6270    1.5330   12.5420 H       1  UNL1        0.0000
     25 H           6.4474    2.3784   13.5171 H       1  UNL1        0.0000
     26 H           6.4265    2.5487   11.7718 H       1  UNL1        0.0000
     27 C           5.7042   -0.7960   13.9565 C.3     1  UNL1        0.0000
     28 H           6.6588   -1.3100   13.8907 H       1  UNL1        0.0000
     29 H           4.9265   -1.5498   14.0399 H       1  UNL1        0.0000
     30 H           5.7023   -0.2227   14.8775 H       1  UNL1        0.0000
     31 C           5.9271   -0.6771   10.8887 C.3     1  UNL1        0.0000
     32 H           6.9873   -0.9088   10.9040 H       1  UNL1        0.0000
     33 H           5.7251   -0.1273    9.9750 H       1  UNL1        0.0000
     34 H           5.3907   -1.6194   10.8288 H       1  UNL1        0.0000
@<TRIPOS>BOND
     1    22    19    1
     2    33    31    1
     3    20    19    1
     4    21    19    1
     5    19     1    1
     6     5     4    1
     7    34    31    1
     8    31    32    1
     9    31     2    1
    10     7     6    1
    11    14    11    1
    12     4     6    2
    13     4     3    1
    14     6     8    1
    15    26    23    1
    16     1     3    1
    17     1    11    1
    18     1    15    1
    19     3     9    1
    20    11    12    1
    21    11    13    1
    22     8     2    1
    23     8     9    1
    24     2    23    1
    25     2    27    1
    26     9    10    1
    27    24    23    1
    28    23    25    1
    29    16    15    1
    30    18    15    1
    31    15    17    1
    32    28    27    1
    33    27    29    1
    34    27    30    1
