@<TRIPOS>MOLECULE
5,6,7,8,9
 34 34 0 0 0
SMALL
GASTEIGER

@<TRIPOS>ATOM
      1 SI          4.0354    2.8248    5.1194 Si      1  UNL1        0.0000
      2 C           5.4738    4.0222    4.7276 C.3     1  UNL1        0.0000
      3 C           2.4478    3.2568    4.1383 C.3     1  UNL1        0.0000
      4 C           4.5931    1.0848    4.5664 C.3     1  UNL1        0.0000
      5 C           3.6397    2.9716    6.9691 C.3     1  UNL1        0.0000
      6 C           3.3704    4.2020    7.6480 C.2     1  UNL1        0.0000
      7 C           3.2262    3.9285    9.0357 C.2     1  UNL1        0.0000
      8 C           3.3627    2.5233    9.2240 C.2     1  UNL1        0.0000
      9 C           3.6231    1.9355    7.9573 C.2     1  UNL1        0.0000
     10 C           3.0938    5.5404    7.0287 C.3     1  UNL1        0.0000
     11 C           2.9136    4.9386   10.0994 C.3     1  UNL1        0.0000
     12 C           3.1598    1.7819   10.5122 C.3     1  UNL1        0.0000
     13 C           3.7021    0.4597    7.7009 C.3     1  UNL1        0.0000
     14 H           5.6732    4.0639    3.6608 H       1  UNL1        0.0000
     15 H           5.2872    5.0377    5.0670 H       1  UNL1        0.0000
     16 H           6.3845    3.6810    5.2191 H       1  UNL1        0.0000
     17 H           2.6375    3.1719    3.0738 H       1  UNL1        0.0000
     18 H           1.6391    2.5744    4.3804 H       1  UNL1        0.0000
     19 H           2.0897    4.2630    4.3266 H       1  UNL1        0.0000
     20 H           4.8400    1.1084    3.5093 H       1  UNL1        0.0000
     21 H           5.4825    0.7650    5.1003 H       1  UNL1        0.0000
     22 H           3.8240    0.3320    4.7001 H       1  UNL1        0.0000
     23 H           3.2032    5.4990    5.9494 H       1  UNL1        0.0000
     24 H           2.0705    5.8429    7.2612 H       1  UNL1        0.0000
     25 H           3.7708    6.3045    7.4151 H       1  UNL1        0.0000
     26 H           3.4657    4.7185   11.0140 H       1  UNL1        0.0000
     27 H           3.1859    5.9393    9.7661 H       1  UNL1        0.0000
     28 H           1.8464    4.9299   10.3326 H       1  UNL1        0.0000
     29 H           3.1873    2.4650   11.3580 H       1  UNL1        0.0000
     30 H           2.1882    1.2825   10.5049 H       1  UNL1        0.0000
     31 H           3.9348    1.0286   10.6584 H       1  UNL1        0.0000
     32 H           4.6522    0.1870    7.2429 H       1  UNL1        0.0000
     33 H           3.5967   -0.0941    8.6318 H       1  UNL1        0.0000
     34 H           2.8988    0.1571    7.0286 H       1  UNL1        0.0000
@<TRIPOS>BOND
     1    17     3    1
     2    20     4    1
     3    14     2    1
     4     3    19    1
     5     3    18    1
     6     3     1    1
     7     4    22    1
     8     4    21    1
     9     4     1    1
    10     2    15    1
    11     2     1    1
    12     2    16    1
    13     1     5    1
    14    23    10    1
    15     5     6    1
    16     5     9    1
    17    34    13    1
    18    10    24    1
    19    10    25    1
    20    10     6    1
    21    32    13    1
    22     6     7    2
    23    13     9    1
    24    13    33    1
    25     9     8    2
    26     7     8    1
    27     7    11    1
    28     8    12    1
    29    27    11    1
    30    11    28    1
    31    11    26    1
    32    30    12    1
    33    12    31    1
    34    12    29    1
