@<TRIPOS>MOLECULE
2,3,4,5,6
 22 22 0 0 0
SMALL
GASTEIGER

@<TRIPOS>ATOM
      1 SI          2.5180    4.8610    9.3221 Si      1  UNL1        0.0000
      2 C           2.5606    3.2395    8.3295 C.2     1  UNL1        0.0000
      3 C           3.6277    2.7370    7.5367 C.3     1  UNL1        0.0000
      4 C           3.2056    1.5373    6.9071 C.2     1  UNL1        0.0000
      5 C           1.8743    1.2848    7.3162 C.2     1  UNL1        0.0000
      6 C           1.4857    2.3331    8.1862 C.2     1  UNL1        0.0000
      7 C           4.2228    5.6964    9.1725 C.3     1  UNL1        0.0000
      8 C           1.1515    5.9252    8.5213 C.3     1  UNL1        0.0000
      9 C           2.0665    4.4457   11.1293 C.3     1  UNL1        0.0000
     10 H           4.5508    3.2597    7.3196 H       1  UNL1        0.0000
     11 H           3.7484    0.9993    6.1405 H       1  UNL1        0.0000
     12 H           1.2180    0.5248    6.9137 H       1  UNL1        0.0000
     13 H           0.4840    2.4771    8.5727 H       1  UNL1        0.0000
     14 H           5.0195    5.0518    9.5333 H       1  UNL1        0.0000
     15 H           4.2483    6.6088    9.7591 H       1  UNL1        0.0000
     16 H           4.4471    5.9674    8.1447 H       1  UNL1        0.0000
     17 H           0.1723    5.4648    8.6095 H       1  UNL1        0.0000
     18 H           1.3410    6.0958    7.4661 H       1  UNL1        0.0000
     19 H           1.1013    6.8941    9.0057 H       1  UNL1        0.0000
     20 H           1.1265    3.9011   11.1921 H       1  UNL1        0.0000
     21 H           1.9546    5.3512   11.7179 H       1  UNL1        0.0000
     22 H           2.8332    3.8375   11.6074 H       1  UNL1        0.0000
@<TRIPOS>BOND
     1    11     4    1
     2     4     5    2
     3     4     3    1
     4    12     5    1
     5     5     6    1
     6    10     3    1
     7    18     8    1
     8     3     2    1
     9    16     7    1
    10     6     2    2
    11     6    13    1
    12     2     1    1
    13     8    17    1
    14     8    19    1
    15     8     1    1
    16     7     1    1
    17     7    14    1
    18     7    15    1
    19     1     9    1
    20     9    20    1
    21     9    22    1
    22     9    21    1
