@<TRIPOS>MOLECULE
1,2,3,4,5
 25 25 0 0 0
SMALL
GASTEIGER

@<TRIPOS>ATOM
      1 C           1.2740    3.0597   -0.2091 C.2     1  UNL1       -0.0477
      2 C           1.1285    4.2233   -1.0244 C.2     1  UNL1       -0.0477
      3 C           1.0238    5.3462   -0.1754 C.2     1  UNL1       -0.0584
      4 C           1.1099    4.8940    1.1869 C.3     1  UNL1        0.0231
      5 C           1.2469    3.4843    1.1693 C.2     1  UNL1       -0.0584
      6 C           1.0035    1.6665   -0.6914 C.3     1  UNL1       -0.0395
      7 H          -0.0764    1.4936   -0.6966 H       1  UNL1        0.0278
      8 H           1.4612    0.9209   -0.0476 H       1  UNL1        0.0278
      9 H           1.3733    1.5221   -1.7032 H       1  UNL1        0.0278
     10 C           0.9342    4.2109   -2.5122 C.3     1  UNL1       -0.0395
     11 H          -0.1009    3.9584   -2.7557 H       1  UNL1        0.0278
     12 H           1.5819    3.4731   -2.9838 H       1  UNL1        0.0278
     13 H           1.1550    5.1838   -2.9485 H       1  UNL1        0.0278
     14 C           0.6340    6.7278   -0.6106 C.3     1  UNL1       -0.0424
     15 H           1.0846    6.9896   -1.5679 H       1  UNL1        0.0275
     16 H           0.9273    7.4816    0.1200 H       1  UNL1        0.0275
     17 H          -0.4516    6.7812   -0.7272 H       1  UNL1        0.0275
     18 C           0.7742    5.7081    2.4032 C.3     1  UNL1       -0.0510
     19 H           0.9627    6.7691    2.2425 H       1  UNL1        0.0242
     20 H           1.3534    5.3835    3.2675 H       1  UNL1        0.0242
     21 H          -0.2846    5.5909    2.6500 H       1  UNL1        0.0242
     22 C           1.0355    2.5883    2.3528 C.3     1  UNL1       -0.0424
     23 H           1.4611    3.0187    3.2578 H       1  UNL1        0.0275
     24 H           1.4825    1.6109    2.1960 H       1  UNL1        0.0275
     25 H          -0.0365    2.4498    2.5193 H       1  UNL1        0.0275
@<TRIPOS>BOND
     1    12    10    1
     2    13    10    1
     3    11    10    1
     4    10     2    1
     5     9     6    1
     6    15    14    1
     7     2     1    1
     8     2     3    2
     9    17    14    1
    10     7     6    1
    11     6     1    1
    12     6     8    1
    13    14     3    1
    14    14    16    1
    15     1     5    2
    16     3     4    1
    17     5     4    1
    18     5    22    1
    19     4    18    1
    20    24    22    1
    21    19    18    1
    22    22    25    1
    23    22    23    1
    24    18    21    1
    25    18    20    1
