@<TRIPOS>MOLECULE
1,3,5,7,9
 10 10 0 0 0
SMALL
GASTEIGER

@<TRIPOS>ATOM
      1 C          -1.1576   -0.5264    9.9154 C.2     1  UNL1       -0.0763
      2 H          -0.5575   -0.5922    9.0170 H       1  UNL1        0.0578
      3 C          -1.0483   -1.3577   11.0489 C.3     1  UNL1        0.0054
      4 H          -0.3638   -2.1921   11.1583 H       1  UNL1        0.0394
      5 C          -2.1297   -1.0621   11.9097 C.2     1  UNL1       -0.0763
      6 H          -2.4174   -1.6416   12.7808 H       1  UNL1        0.0578
      7 C          -2.8973   -0.0391   11.3084 C.2     1  UNL1       -0.0654
      8 H          -3.8543    0.3311   11.6571 H       1  UNL1        0.0615
      9 C          -2.2891    0.2960   10.0808 C.2     1  UNL1       -0.0654
     10 H          -2.6792    0.9923    9.3488 H       1  UNL1        0.0615
@<TRIPOS>BOND
     1     2     1    1
     2    10     9    1
     3     1     9    2
     4     1     3    1
     5     9     7    1
     6     3     4    1
     7     3     5    1
     8     7     8    1
     9     7     5    2
    10     5     6    1
