@<TRIPOS>MOLECULE
1,3,5,7,9
 10 10 0 0 0
SMALL
GASTEIGER

@<TRIPOS>ATOM
      1 C           0.1282   -0.1142   14.0569 C.3     1  UNL1       -0.0235
      2 H          -0.3705   -0.9472   14.5413 H       1  UNL1        0.0315
      3 C          -0.0290    1.2484   14.3937 C.3     1  UNL1       -0.0127
      4 H          -0.6831    1.6447   15.1604 H       1  UNL1        0.0352
      5 C           0.9452    1.9867   13.6904 C.2     1  UNL1       -0.0837
      6 H           1.1333    3.0480   13.7952 H       1  UNL1        0.0572
      7 C           1.7154    1.0830   12.9333 C.2     1  UNL1       -0.0837
      8 H           2.6139    1.3326   12.3836 H       1  UNL1        0.0572
      9 C           1.2053   -0.2152   13.1461 C.3     1  UNL1       -0.0127
     10 H           1.6679   -1.1382   12.8121 H       1  UNL1        0.0352
@<TRIPOS>BOND
     1     8     7    1
     2    10     9    1
     3     7     9    1
     4     7     5    2
     5     9     1    1
     6     5     6    1
     7     5     3    1
     8     1     3    1
     9     1     2    1
    10     3     4    1
