@<TRIPOS>MOLECULE
1,3,5,7,9
 10 10 0 0 0
SMALL
GASTEIGER

@<TRIPOS>ATOM
      1 C           2.6155    1.9135    5.3901 C.2     1  UNL1       -0.0763
      2 H           1.8965    1.2245    5.8122 H       1  UNL1        0.0578
      3 C           3.9681    1.6365    5.1036 C.2     1  UNL1       -0.0654
      4 H           4.4720    0.6921    5.2710 H       1  UNL1        0.0615
      5 C           4.5906    2.8493    4.7516 C.2     1  UNL1       -0.0654
      6 H           5.6526    2.9903    4.5842 H       1  UNL1        0.0615
      7 C           3.6217    3.8734    4.8246 C.2     1  UNL1       -0.0763
      8 H           3.8111    4.9347    4.7244 H       1  UNL1        0.0578
      9 C           2.4010    3.2962    5.2073 C.3     1  UNL1        0.0054
     10 H           1.4941    3.8289    5.4592 H       1  UNL1        0.0394
@<TRIPOS>BOND
     1     6     5    1
     2     8     7    1
     3     5     7    2
     4     5     3    1
     5     7     9    1
     6     3     4    1
     7     3     1    2
     8     9     1    1
     9     9    10    1
    10     1     2    1
