@<TRIPOS>MOLECULE
1,3,5,7,9
 10 10 0 0 0
SMALL
GASTEIGER

@<TRIPOS>ATOM
      1 C           6.2639   11.2464    5.9223 C.2     1  UNL1       -0.0763
      2 H           5.2255   10.9818    6.0775 H       1  UNL1        0.0578
      3 C           7.3325   10.3551    5.7083 C.2     1  UNL1       -0.0654
      4 H           7.2674    9.2751    5.7215 H       1  UNL1        0.0615
      5 C           8.5315   11.1039    5.6803 C.2     1  UNL1       -0.0654
      6 H           9.5349   10.6895    5.6611 H       1  UNL1        0.0615
      7 C           8.1972   12.4583    5.9054 C.2     1  UNL1       -0.0763
      8 H           8.9010   13.2605    6.0915 H       1  UNL1        0.0578
      9 C           6.7945   12.5526    6.0274 C.3     1  UNL1        0.0054
     10 H           6.2368   13.4351    6.3181 H       1  UNL1        0.0394
@<TRIPOS>BOND
     1     6     5    1
     2     5     3    1
     3     5     7    2
     4     3     4    1
     5     3     1    2
     6     7     9    1
     7     7     8    1
     8     1     9    1
     9     1     2    1
    10     9    10    1
