@<TRIPOS>MOLECULE
1,3,5,7,9
 10 10 0 0 0
SMALL
GASTEIGER

@<TRIPOS>ATOM
      1 C           7.6953   13.7625    2.1100 C.2     1  UNL1       -0.0763
      2 H           6.9591   14.4703    1.7579 H       1  UNL1        0.0578
      3 C           8.0980   12.5934    1.4336 C.2     1  UNL1       -0.0654
      4 H           7.6874   12.2400    0.4958 H       1  UNL1        0.0615
      5 C           9.2170   12.0606    2.1154 C.2     1  UNL1       -0.0654
      6 H           9.8613   11.2655    1.7613 H       1  UNL1        0.0615
      7 C           9.5097   12.9110    3.2013 C.2     1  UNL1       -0.0763
      8 H          10.3893   12.8445    3.8313 H       1  UNL1        0.0578
      9 C           8.5641   13.9561    3.2064 C.3     1  UNL1        0.0054
     10 H           8.5936   14.8347    3.8392 H       1  UNL1        0.0394
@<TRIPOS>BOND
     1     4     3    1
     2     3     1    2
     3     3     5    1
     4     2     1    1
     5     6     5    1
     6     1     9    1
     7     5     7    2
     8     7     9    1
     9     7     8    1
    10     9    10    1
