@<TRIPOS>MOLECULE
1,3,5,7,9
 10 10 0 0 0
SMALL
GASTEIGER

@<TRIPOS>ATOM
      1 C           3.7604    2.1186    0.7938 C.2     1  UNL1       -0.0763
      2 H           3.8427    1.2174    0.2038 H       1  UNL1        0.0578
      3 C           2.6619    2.9869    0.7801 C.2     1  UNL1       -0.0654
      4 H           1.7606    2.8443    0.1989 H       1  UNL1        0.0615
      5 C           2.9939    4.1254    1.5463 C.2     1  UNL1       -0.0654
      6 H           2.4113    5.0321    1.6169 H       1  UNL1        0.0615
      7 C           4.3055    3.9551    2.0226 C.2     1  UNL1       -0.0763
      8 H           4.9116    4.7154    2.4994 H       1  UNL1        0.0578
      9 C           4.7712    2.6945    1.5885 C.3     1  UNL1        0.0054
     10 H           5.7897    2.3412    1.6837 H       1  UNL1        0.0394
@<TRIPOS>BOND
     1     4     3    1
     2     2     1    1
     3     3     1    2
     4     3     5    1
     5     1     9    1
     6     5     6    1
     7     5     7    2
     8     9    10    1
     9     9     7    1
    10     7     8    1
