@<TRIPOS>MOLECULE
1,2,3,4,5
 10 10 0 0 0
SMALL
GASTEIGER

@<TRIPOS>ATOM
      1 C           8.3903    6.9137    2.1852 C.3     1  UNL1       -0.0235
      2 C           8.6280    7.8365    3.2319 C.3     1  UNL1       -0.0127
      3 C           7.4053    8.0829    3.8782 C.2     1  UNL1       -0.0837
      4 C           6.4125    7.3066    3.2492 C.2     1  UNL1       -0.0837
      5 C           7.0155    6.5927    2.1972 C.3     1  UNL1       -0.0127
      6 H           9.1138    6.6157    1.4377 H       1  UNL1        0.0315
      7 H           9.5687    8.3375    3.4257 H       1  UNL1        0.0352
      8 H           7.2344    8.8296    4.6413 H       1  UNL1        0.0572
      9 H           5.3486    7.3522    3.4401 H       1  UNL1        0.0572
     10 H           6.4865    5.9987    1.4647 H       1  UNL1        0.0352
@<TRIPOS>BOND
     1     6     1    1
     2    10     5    1
     3     1     5    1
     4     1     2    1
     5     5     4    1
     6     2     7    1
     7     2     3    1
     8     4     9    1
     9     4     3    2
    10     3     8    1
