@<TRIPOS>MOLECULE
1,2,3,4,5
 10 10 0 0 0
SMALL
GASTEIGER

@<TRIPOS>ATOM
      1 C           0.8192   -2.2136    3.4942 C.3     1  UNL1        0.0054
      2 C           0.2577   -2.1046    2.2006 C.2     1  UNL1       -0.0763
      3 C          -1.0132   -1.5157    2.3295 C.2     1  UNL1       -0.0654
      4 C          -1.2451   -1.2642    3.6955 C.2     1  UNL1       -0.0654
      5 C          -0.1187   -1.6934    4.4159 C.2     1  UNL1       -0.0763
      6 H           1.7388   -2.7181    3.7594 H       1  UNL1        0.0394
      7 H           0.6661   -2.5095    1.2851 H       1  UNL1        0.0578
      8 H          -1.7342   -1.4073    1.5308 H       1  UNL1        0.0615
      9 H          -2.1763   -0.9258    4.1283 H       1  UNL1        0.0615
     10 H          -0.0176   -1.7132    5.4937 H       1  UNL1        0.0578
@<TRIPOS>BOND
     1     7     2    1
     2     8     3    1
     3     2     3    2
     4     2     1    1
     5     3     4    1
     6     1     6    1
     7     1     5    1
     8     4     9    1
     9     4     5    2
    10     5    10    1
