@<TRIPOS>MOLECULE
1,2,3,4,5
 10 10 0 0 0
SMALL
GASTEIGER

@<TRIPOS>ATOM
      1 C           6.5366    4.6223    5.6076 C.2     1  UNL1       -0.0763
      2 C           6.3011    5.9850    5.8544 C.2     1  UNL1       -0.0654
      3 C           7.4856    6.5489    6.3671 C.2     1  UNL1       -0.0654
      4 C           8.4519    5.5302    6.4590 C.2     1  UNL1       -0.0763
      5 C           7.8703    4.3346    5.9843 C.3     1  UNL1        0.0054
      6 H           5.8040    3.8925    5.2851 H       1  UNL1        0.0578
      7 H           5.3443    6.4831    5.7808 H       1  UNL1        0.0615
      8 H           7.5998    7.5512    6.7578 H       1  UNL1        0.0615
      9 H           9.4238    5.6342    6.9214 H       1  UNL1        0.0578
     10 H           8.3113    3.3468    6.0172 H       1  UNL1        0.0394
@<TRIPOS>BOND
     1     6     1    1
     2     1     2    2
     3     1     5    1
     4     7     2    1
     5     2     3    1
     6     5    10    1
     7     5     4    1
     8     3     4    2
     9     3     8    1
    10     4     9    1
