@<TRIPOS>MOLECULE
1,2,3,4,5
 10 10 0 0 0
SMALL
GASTEIGER

@<TRIPOS>ATOM
      1 C           0.9788    2.2755    2.5779 C.3     1  UNL1       -0.0235
      2 C           0.1171    2.1814    3.6956 C.3     1  UNL1       -0.0127
      3 C          -1.0961    1.6186    3.2596 C.2     1  UNL1       -0.0837
      4 C          -0.9936    1.3683    1.8776 C.2     1  UNL1       -0.0837
      5 C           0.2830    1.7723    1.4542 C.3     1  UNL1       -0.0127
      6 H           1.9454    2.7603    2.5458 H       1  UNL1        0.0315
      7 H           0.2984    2.5801    4.6840 H       1  UNL1        0.0352
      8 H          -1.9920    1.5270    3.8584 H       1  UNL1        0.0572
      9 H          -1.7981    1.0482    1.2303 H       1  UNL1        0.0572
     10 H           0.6438    1.7874    0.4335 H       1  UNL1        0.0352
@<TRIPOS>BOND
     1    10     5    1
     2     9     4    1
     3     5     4    1
     4     5     1    1
     5     4     3    2
     6     6     1    1
     7     1     2    1
     8     3     2    1
     9     3     8    1
    10     2     7    1
