@<TRIPOS>MOLECULE
3,4,5,7,8
 25 26 0 0 0
SMALL
GASTEIGER

@<TRIPOS>ATOM
      1 SI          3.7744    9.0843    4.3501 Si      1  UNL1        0.0000
      2 H           3.9545    9.2873    2.8935 H       1  UNL1        0.0000
      3 C          -0.1018    8.3963    5.6494 C.ar    1  UNL1        0.0000
      4 C          -0.2114    9.7824    5.2460 C.ar    1  UNL1        0.0000
      5 C           1.0625   10.1804    4.7418 C.3     1  UNL1        0.0000
      6 H           1.3605   11.1979    4.5187 H       1  UNL1        0.0000
      7 C           1.9524    9.0778    4.8466 C.3     1  UNL1        0.0000
      8 C           1.2274    7.9708    5.3668 C.3     1  UNL1        0.0000
      9 H           1.6486    7.0041    5.6224 H       1  UNL1        0.0000
     10 C          -1.4231   10.4715    5.4546 C.ar    1  UNL1        0.0000
     11 H          -1.5060   11.5202    5.1985 H       1  UNL1        0.0000
     12 C          -2.4760    9.8075    6.0318 C.ar    1  UNL1        0.0000
     13 H          -3.4058   10.3274    6.2076 H       1  UNL1        0.0000
     14 C          -2.3697    8.4584    6.4176 C.ar    1  UNL1        0.0000
     15 H          -3.2227    7.9808    6.8750 H       1  UNL1        0.0000
     16 C          -1.2082    7.7520    6.2372 C.ar    1  UNL1        0.0000
     17 H          -1.1281    6.7209    6.5536 H       1  UNL1        0.0000
     18 C           4.5822    7.4728    4.9527 C.3     1  UNL1        0.0000
     19 H           4.1526    6.6132    4.4483 H       1  UNL1        0.0000
     20 H           4.4591    7.3362    6.0240 H       1  UNL1        0.0000
     21 H           5.6468    7.4791    4.7440 H       1  UNL1        0.0000
     22 C           4.5684   10.5793    5.2310 C.3     1  UNL1        0.0000
     23 H           4.1577   11.5202    4.8790 H       1  UNL1        0.0000
     24 H           5.6365   10.6024    5.0463 H       1  UNL1        0.0000
     25 H           4.4220   10.5393    6.3057 H       1  UNL1        0.0000
@<TRIPOS>BOND
     1     2     1    1
     2     1     7    1
     3     1    18    1
     4     1    22    1
     5    19    18    1
     6     6     5    1
     7     5     7    1
     8     5     4    1
     9    21    18    1
    10     7     8    1
    11    23    22    1
    12    18    20    1
    13    24    22    1
    14    11    10    1
    15    22    25    1
    16     4    10   ar
    17     4     3   ar
    18     8     9    1
    19     8     3    1
    20    10    12   ar
    21     3    16   ar
    22    12    13    1
    23    12    14   ar
    24    16    14   ar
    25    16    17    1
    26    14    15    1
