@<TRIPOS>MOLECULE
3,4,5,7,8
 25 26 0 0 0
SMALL
GASTEIGER

@<TRIPOS>ATOM
      1 SI         -3.0657    9.0032    2.1105 Si      1  UNL1        0.0000
      2 H          -3.2513    8.7177    3.5525 H       1  UNL1        0.0000
      3 C           0.8453    9.2612    0.7594 C.ar    1  UNL1        0.0000
      4 C           0.7810   10.4509    1.5817 C.ar    1  UNL1        0.0000
      5 C          -0.5240   10.5009    2.1557 C.3     1  UNL1        0.0000
      6 H          -0.9475   11.3483    2.6814 H       1  UNL1        0.0000
      7 C          -1.2651    9.3832    1.6870 C.3     1  UNL1        0.0000
      8 C          -0.4121    8.6000    0.8618 C.3     1  UNL1        0.0000
      9 H          -0.7089    7.7180    0.3037 H       1  UNL1        0.0000
     10 C           1.8870   11.3233    1.6268 C.ar    1  UNL1        0.0000
     11 H           1.8364   12.2398    2.2010 H       1  UNL1        0.0000
     12 C           3.0057   11.0189    0.8930 C.ar    1  UNL1        0.0000
     13 H           3.8551   11.6852    0.9094 H       1  UNL1        0.0000
     14 C           3.0696    9.8576    0.1009 C.ar    1  UNL1        0.0000
     15 H           3.9689    9.6636   -0.4637 H       1  UNL1        0.0000
     16 C           2.0147    8.9847    0.0241 C.ar    1  UNL1        0.0000
     17 H           2.0648    8.1035   -0.6009 H       1  UNL1        0.0000
     18 C          -3.6673    7.5730    1.0127 C.3     1  UNL1        0.0000
     19 H          -3.1234    6.6603    1.2342 H       1  UNL1        0.0000
     20 H          -3.5426    7.7963   -0.0437 H       1  UNL1        0.0000
     21 H          -4.7209    7.3784    1.1835 H       1  UNL1        0.0000
     22 C          -4.0560   10.5860    1.7152 C.3     1  UNL1        0.0000
     23 H          -3.7795   11.4084    2.3670 H       1  UNL1        0.0000
     24 H          -5.1177   10.4106    1.8474 H       1  UNL1        0.0000
     25 H          -3.9026   10.9134    0.6918 H       1  UNL1        0.0000
@<TRIPOS>BOND
     1    17    16    1
     2    15    14    1
     3    20    18    1
     4    16    14   ar
     5    16     3   ar
     6    14    12   ar
     7     9     8    1
     8    25    22    1
     9     3     8    1
    10     3     4   ar
    11     8     7    1
    12    12    13    1
    13    12    10   ar
    14    18    21    1
    15    18    19    1
    16    18     1    1
    17     4    10   ar
    18     4     5    1
    19    10    11    1
    20     7     1    1
    21     7     5    1
    22    22    24    1
    23    22     1    1
    24    22    23    1
    25     1     2    1
    26     5     6    1
