@<TRIPOS>MOLECULE
2,3,4,6,7
 28 29 0 0 0
SMALL
GASTEIGER

@<TRIPOS>ATOM
      1 SI         -0.8734    2.2563    1.8426 Si      1  UNL1        0.0000
      2 C          -0.0150    6.0524    3.2605 C.2     1  UNL1        0.0000
      3 C          -0.1963    5.3373    4.5075 C.2     1  UNL1        0.0000
      4 C          -0.3743    3.9596    4.1848 C.2     1  UNL1        0.0000
      5 H          -0.6943    3.1881    4.8742 H       1  UNL1        0.0000
      6 C          -0.3730    3.8266    2.7702 C.2     1  UNL1        0.0000
      7 C          -0.1122    5.0991    2.2027 C.2     1  UNL1        0.0000
      8 H          -0.1115    5.3293    1.1426 H       1  UNL1        0.0000
      9 C          -0.2534    6.0588    5.7165 C.2     1  UNL1        0.0000
     10 H          -0.4470    5.5424    6.6481 H       1  UNL1        0.0000
     11 C          -0.1081    7.4233    5.6874 C.2     1  UNL1        0.0000
     12 H          -0.1698    7.9891    6.6055 H       1  UNL1        0.0000
     13 C           0.1006    8.1125    4.4790 C.2     1  UNL1        0.0000
     14 H           0.2047    9.1866    4.5054 H       1  UNL1        0.0000
     15 C           0.1494    7.4511    3.2772 C.3     1  UNL1        0.0000
     16 H           0.2779    7.9914    2.3489 H       1  UNL1        0.0000
     17 C          -0.5185    2.4315   -0.0215 C.3     1  UNL1        0.0000
     18 H           0.5261    2.6589   -0.2074 H       1  UNL1        0.0000
     19 H          -1.1206    3.2191   -0.4659 H       1  UNL1        0.0000
     20 H          -0.7534    1.5092   -0.5427 H       1  UNL1        0.0000
     21 C          -2.7635    2.0854    2.0936 C.3     1  UNL1        0.0000
     22 H          -3.2984    2.9436    1.6999 H       1  UNL1        0.0000
     23 H          -3.0238    1.9915    3.1428 H       1  UNL1        0.0000
     24 H          -3.1360    1.2041    1.5832 H       1  UNL1        0.0000
     25 C          -0.0224    0.7598    2.6692 C.3     1  UNL1        0.0000
     26 H          -0.3739   -0.1715    2.2370 H       1  UNL1        0.0000
     27 H          -0.2306    0.7237    3.7359 H       1  UNL1        0.0000
     28 H           1.0553    0.7992    2.5419 H       1  UNL1        0.0000
@<TRIPOS>BOND
     1    20    17    1
     2    19    17    1
     3    18    17    1
     4    17     1    1
     5     8     7    1
     6    24    21    1
     7    22    21    1
     8     1    21    1
     9     1    25    1
    10     1     6    1
    11    21    23    1
    12     7     6    1
    13     7     2    2
    14    26    25    1
    15    16    15    1
    16    28    25    1
    17    25    27    1
    18     6     4    2
    19     2    15    1
    20     2     3    1
    21    15    13    1
    22     4     3    1
    23     4     5    1
    24    13    14    1
    25    13    11    2
    26     3     9    2
    27    11     9    1
    28    11    12    1
    29     9    10    1
