@<TRIPOS>MOLECULE
2,3,4,6,7
 28 29 0 0 0
SMALL
GASTEIGER

@<TRIPOS>ATOM
      1 SI          4.7609    6.5989    4.7731 Si      1  UNL1        0.0000
      2 C           3.2114    2.7572    4.7386 C.ar    1  UNL1        0.0000
      3 C           2.3174    3.3980    5.6817 C.ar    1  UNL1        0.0000
      4 C           2.6467    4.7852    5.7035 C.3     1  UNL1        0.0000
      5 H           2.2765    5.5088    6.4192 H       1  UNL1        0.0000
      6 C           3.7624    4.9947    4.8491 C.3     1  UNL1        0.0000
      7 C           4.0849    3.7631    4.2261 C.3     1  UNL1        0.0000
      8 H           4.9301    3.5908    3.5680 H       1  UNL1        0.0000
      9 C           1.4108    2.6117    6.4200 C.ar    1  UNL1        0.0000
     10 H           0.7797    3.0712    7.1700 H       1  UNL1        0.0000
     11 C           1.3744    1.2565    6.2059 C.ar    1  UNL1        0.0000
     12 H           0.6956    0.6410    6.7779 H       1  UNL1        0.0000
     13 C           2.2198    0.6402    5.2655 C.ar    1  UNL1        0.0000
     14 H           2.1578   -0.4294    5.1344 H       1  UNL1        0.0000
     15 C           3.1290    1.3657    4.5365 C.ar    1  UNL1        0.0000
     16 H           3.7986    0.8799    3.8394 H       1  UNL1        0.0000
     17 C           6.0228    6.5485    3.3459 C.3     1  UNL1        0.0000
     18 H           6.5502    7.4939    3.2700 H       1  UNL1        0.0000
     19 H           5.5378    6.3637    2.3930 H       1  UNL1        0.0000
     20 H           6.7665    5.7725    3.5032 H       1  UNL1        0.0000
     21 C           5.7133    6.6858    6.4315 C.3     1  UNL1        0.0000
     22 H           6.3612    5.8255    6.5648 H       1  UNL1        0.0000
     23 H           5.0392    6.7216    7.2811 H       1  UNL1        0.0000
     24 H           6.3350    7.5736    6.4683 H       1  UNL1        0.0000
     25 C           3.5448    8.0697    4.6976 C.3     1  UNL1        0.0000
     26 H           4.0735    9.0133    4.7854 H       1  UNL1        0.0000
     27 H           2.8181    8.0264    5.5054 H       1  UNL1        0.0000
     28 H           2.9980    8.0813    3.7594 H       1  UNL1        0.0000
@<TRIPOS>BOND
     1    19    17    1
     2    18    17    1
     3    17    20    1
     4    17     1    1
     5     8     7    1
     6    28    25    1
     7    16    15    1
     8     7     2    1
     9     7     6    1
    10    15     2   ar
    11    15    13   ar
    12    25     1    1
    13    25    26    1
    14    25    27    1
    15     2     3   ar
    16     1     6    1
    17     1    21    1
    18     6     4    1
    19    14    13    1
    20    13    11   ar
    21     3     4    1
    22     3     9   ar
    23     4     5    1
    24    11     9   ar
    25    11    12    1
    26     9    10    1
    27    21    24    1
    28    21    22    1
    29    21    23    1
