@<TRIPOS>MOLECULE
4,5,7,8,9
 46 46 0 0 0
SMALL
GASTEIGER

@<TRIPOS>ATOM
      1 SI         -3.2611    9.7437    0.6022 Si      1  UNL1        0.0000
      2 SI          0.4599   12.7427    3.6804 Si      1  UNL1        0.0000
      3 SI         -3.2136   13.3235    4.9996 Si      1  UNL1        0.0000
      4 C          -2.5619   10.3857    2.2225 C.3     1  UNL1        0.0000
      5 C          -1.2188   10.8244    2.3964 C.3     1  UNL1        0.0000
      6 H          -0.4130   10.6059    1.7099 H       1  UNL1        0.0000
      7 C          -1.1483   11.7812    3.4433 C.3     1  UNL1        0.0000
      8 C          -2.4889   11.9379    3.9568 C.2     1  UNL1        0.0000
      9 C          -3.3176   11.0807    3.2011 C.2     1  UNL1        0.0000
     10 H          -4.3946   11.0493    3.2776 H       1  UNL1        0.0000
     11 C          -2.8850   11.0769   -0.7172 C.3     1  UNL1        0.0000
     12 H          -3.3520   10.8402   -1.6686 H       1  UNL1        0.0000
     13 H          -1.8168   11.1679   -0.8892 H       1  UNL1        0.0000
     14 H          -3.2461   12.0515   -0.4038 H       1  UNL1        0.0000
     15 C          -5.1604    9.5618    0.7338 C.3     1  UNL1        0.0000
     16 H          -5.5747    9.2600   -0.2229 H       1  UNL1        0.0000
     17 H          -5.6229   10.5052    1.0051 H       1  UNL1        0.0000
     18 H          -5.4669    8.8208    1.4650 H       1  UNL1        0.0000
     19 C          -2.5355    8.1034   -0.0674 C.3     1  UNL1        0.0000
     20 H          -2.7608    8.0151   -1.1262 H       1  UNL1        0.0000
     21 H          -2.9499    7.2271    0.4206 H       1  UNL1        0.0000
     22 H          -1.4551    8.0653    0.0350 H       1  UNL1        0.0000
     23 C           0.7878   13.6757    2.0418 C.3     1  UNL1        0.0000
     24 H           1.7485   14.1796    2.0647 H       1  UNL1        0.0000
     25 H           0.0261   14.4268    1.8608 H       1  UNL1        0.0000
     26 H           0.7870   13.0029    1.1905 H       1  UNL1        0.0000
     27 C           1.8566   11.4375    3.9202 C.3     1  UNL1        0.0000
     28 H           2.3690   11.5818    4.8666 H       1  UNL1        0.0000
     29 H           2.6052   11.5113    3.1368 H       1  UNL1        0.0000
     30 H           1.4703   10.4147    3.9072 H       1  UNL1        0.0000
     31 C           0.6045   14.0102    5.0973 C.3     1  UNL1        0.0000
     32 H           1.5088   14.5950    4.9576 H       1  UNL1        0.0000
     33 H           0.6773   13.5315    6.0670 H       1  UNL1        0.0000
     34 H          -0.2299   14.7000    5.1245 H       1  UNL1        0.0000
     35 C          -2.6064   13.4840    6.8044 C.3     1  UNL1        0.0000
     36 H          -2.9738   14.4107    7.2358 H       1  UNL1        0.0000
     37 H          -1.5268   13.4953    6.8850 H       1  UNL1        0.0000
     38 H          -2.9724   12.6724    7.4263 H       1  UNL1        0.0000
     39 C          -2.9707   14.9760    4.0670 C.3     1  UNL1        0.0000
     40 H          -3.6178   15.0241    3.1966 H       1  UNL1        0.0000
     41 H          -1.9513   15.0962    3.7176 H       1  UNL1        0.0000
     42 H          -3.2084   15.8247    4.7006 H       1  UNL1        0.0000
     43 C          -5.1066   13.0443    5.1310 C.3     1  UNL1        0.0000
     44 H          -5.5836   13.0752    4.1572 H       1  UNL1        0.0000
     45 H          -5.5616   13.8196    5.7388 H       1  UNL1        0.0000
     46 H          -5.3498   12.0901    5.5888 H       1  UNL1        0.0000
@<TRIPOS>BOND
     1    12    11    1
     2    20    19    1
     3    13    11    1
     4    11    14    1
     5    11     1    1
     6    16    15    1
     7    19    22    1
     8    19    21    1
     9    19     1    1
    10     1    15    1
    11     1     4    1
    12    15    17    1
    13    15    18    1
    14    26    23    1
    15     6     5    1
    16    25    23    1
    17    23    24    1
    18    23     2    1
    19     4     5    1
    20     4     9    1
    21     5     7    1
    22    29    27    1
    23    40    39    1
    24     9    10    1
    25     9     8    2
    26     7     2    1
    27     7     8    1
    28     2    27    1
    29     2    31    1
    30    41    39    1
    31    30    27    1
    32    27    28    1
    33     8     3    1
    34    39    42    1
    35    39     3    1
    36    44    43    1
    37    32    31    1
    38     3    43    1
    39     3    35    1
    40    31    34    1
    41    31    33    1
    42    43    46    1
    43    43    45    1
    44    35    37    1
    45    35    36    1
    46    35    38    1
