@<TRIPOS>MOLECULE
4,5,7,8,10
 46 46 0 0 0
SMALL
GASTEIGER

@<TRIPOS>ATOM
      1 SI         -0.6264    6.3738    7.2531 Si      1  UNL1        0.0000
      2 SI          1.6312    7.6405    2.1388 Si      1  UNL1        0.0000
      3 SI         -3.2118    5.7584    4.4187 Si      1  UNL1        0.0000
      4 C          -0.6587    6.9871    5.4724 C.2     1  UNL1        0.0000
      5 C           0.4989    7.4760    4.8322 C.3     1  UNL1        0.0000
      6 H           1.4533    7.6213    5.3185 H       1  UNL1        0.0000
      7 C           0.2716    7.6334    3.4392 C.2     1  UNL1        0.0000
      8 C          -1.0779    7.2450    3.2243 C.2     1  UNL1        0.0000
      9 H          -1.5238    7.1002    2.2510 H       1  UNL1        0.0000
     10 C          -1.6760    6.8414    4.4537 C.2     1  UNL1        0.0000
     11 C          -1.9523    7.2166    8.3541 C.3     1  UNL1        0.0000
     12 H          -2.8453    7.4767    7.7935 H       1  UNL1        0.0000
     13 H          -1.5630    8.1225    8.8074 H       1  UNL1        0.0000
     14 H          -2.2550    6.5572    9.1616 H       1  UNL1        0.0000
     15 C          -0.8694    4.4786    7.3253 C.3     1  UNL1        0.0000
     16 H          -1.8811    4.1796    7.0775 H       1  UNL1        0.0000
     17 H          -0.6538    4.1109    8.3235 H       1  UNL1        0.0000
     18 H          -0.1982    3.9741    6.6383 H       1  UNL1        0.0000
     19 C           1.0872    6.7162    8.0232 C.3     1  UNL1        0.0000
     20 H           1.1150    6.3703    9.0519 H       1  UNL1        0.0000
     21 H           1.3302    7.7731    8.0316 H       1  UNL1        0.0000
     22 H           1.8728    6.1961    7.4843 H       1  UNL1        0.0000
     23 C           3.3238    7.7409    3.0147 C.3     1  UNL1        0.0000
     24 H           3.4263    8.6479    3.6017 H       1  UNL1        0.0000
     25 H           4.1315    7.7291    2.2897 H       1  UNL1        0.0000
     26 H           3.4710    6.8979    3.6817 H       1  UNL1        0.0000
     27 C           1.5006    5.9794    1.1985 C.3     1  UNL1        0.0000
     28 H           2.3267    5.8532    0.5056 H       1  UNL1        0.0000
     29 H           0.5806    5.9196    0.6250 H       1  UNL1        0.0000
     30 H           1.5120    5.1381    1.8842 H       1  UNL1        0.0000
     31 C           1.5856    9.0215    0.8129 C.3     1  UNL1        0.0000
     32 H           1.7857   10.0039    1.2288 H       1  UNL1        0.0000
     33 H           0.6336    9.0616    0.2920 H       1  UNL1        0.0000
     34 H           2.3496    8.8273    0.0656 H       1  UNL1        0.0000
     35 C          -2.7215    3.9588    4.0007 C.3     1  UNL1        0.0000
     36 H          -3.5980    3.3256    3.8980 H       1  UNL1        0.0000
     37 H          -2.0896    3.5273    4.7687 H       1  UNL1        0.0000
     38 H          -2.1703    3.9153    3.0663 H       1  UNL1        0.0000
     39 C          -4.2993    5.7323    5.9925 C.3     1  UNL1        0.0000
     40 H          -5.1546    5.0823    5.8341 H       1  UNL1        0.0000
     41 H          -4.6830    6.7138    6.2541 H       1  UNL1        0.0000
     42 H          -3.7576    5.3533    6.8500 H       1  UNL1        0.0000
     43 C          -4.3380    6.3738    2.9858 C.3     1  UNL1        0.0000
     44 H          -5.3857    6.3719    3.2723 H       1  UNL1        0.0000
     45 H          -4.2453    5.7232    2.1220 H       1  UNL1        0.0000
     46 H          -4.0809    7.3774    2.6568 H       1  UNL1        0.0000
@<TRIPOS>BOND
     1    34    31    1
     2    33    31    1
     3    28    27    1
     4    29    27    1
     5    31    32    1
     6    31     2    1
     7    27    30    1
     8    27     2    1
     9    45    43    1
    10     2    23    1
    11     2     7    1
    12     9     8    1
    13    25    23    1
    14    46    43    1
    15    43    44    1
    16    43     3    1
    17    23    24    1
    18    23    26    1
    19    38    35    1
    20     8     7    2
    21     8    10    1
    22     7     5    1
    23    36    35    1
    24    35     3    1
    25    35    37    1
    26     3    10    1
    27     3    39    1
    28    10     4    2
    29     5     6    1
    30     5     4    1
    31     4     1    1
    32    40    39    1
    33    39    41    1
    34    39    42    1
    35    18    15    1
    36    16    15    1
    37     1    15    1
    38     1    19    1
    39     1    11    1
    40    15    17    1
    41    22    19    1
    42    12    11    1
    43    19    21    1
    44    19    20    1
    45    11    13    1
    46    11    14    1
