@<TRIPOS>MOLECULE
2,3,5,7,9
 31 31 0 0 0
SMALL
GASTEIGER

@<TRIPOS>ATOM
      1 SI          6.1914    4.4668    8.4655 Si      1  UNL1        0.0000
      2 C           5.8059    5.7377    9.8097 C.3     1  UNL1        0.0000
      3 C           4.5790    5.8349   10.5253 C.3     1  UNL1        0.0000
      4 H           3.6941    5.2411   10.3331 H       1  UNL1        0.0000
      5 C           4.7454    6.7322   11.5954 C.2     1  UNL1        0.0000
      6 H           4.0126    6.9559   12.3596 H       1  UNL1        0.0000
      7 C           6.0567    7.2393   11.5371 C.2     1  UNL1        0.0000
      8 H           6.5116    7.8841   12.2787 H       1  UNL1        0.0000
      9 C           6.7152    6.6092   10.4568 C.3     1  UNL1        0.0000
     10 H           7.7719    6.6848   10.2398 H       1  UNL1        0.0000
     11 C           4.5929    3.5935    7.9017 C.3     1  UNL1        0.0000
     12 H           4.1136    3.0592    8.7163 H       1  UNL1        0.0000
     13 H           4.7996    2.8759    7.1143 H       1  UNL1        0.0000
     14 H           3.8816    4.3135    7.5119 H       1  UNL1        0.0000
     15 C           7.0217    5.3586    6.9912 C.3     1  UNL1        0.0000
     16 H           7.9946    5.7672    7.2489 H       1  UNL1        0.0000
     17 H           6.3891    6.1739    6.6486 H       1  UNL1        0.0000
     18 H           7.1650    4.6800    6.1568 H       1  UNL1        0.0000
     19 C           7.3925    3.1511    9.2359 C.3     1  UNL1        0.0000
     20 C           6.7054    2.4298   10.3974 C.3     1  UNL1        0.0000
     21 H           5.8302    1.8861   10.0522 H       1  UNL1        0.0000
     22 H           6.3918    3.1386   11.1612 H       1  UNL1        0.0000
     23 H           7.3874    1.7140   10.8554 H       1  UNL1        0.0000
     24 C           8.6766    3.7922    9.7639 C.3     1  UNL1        0.0000
     25 H           9.1863    4.3506    8.9823 H       1  UNL1        0.0000
     26 H           9.3586    3.0230   10.1256 H       1  UNL1        0.0000
     27 H           8.4590    4.4619   10.5919 H       1  UNL1        0.0000
     28 C           7.7675    2.1240    8.1685 C.3     1  UNL1        0.0000
     29 H           6.8826    1.6300    7.7772 H       1  UNL1        0.0000
     30 H           8.4227    1.3614    8.5883 H       1  UNL1        0.0000
     31 H           8.2881    2.5997    7.3415 H       1  UNL1        0.0000
@<TRIPOS>BOND
     1    18    15    1
     2    17    15    1
     3    15    16    1
     4    15     1    1
     5    13    11    1
     6    31    28    1
     7    14    11    1
     8    29    28    1
     9    11     1    1
    10    11    12    1
    11    28    30    1
    12    28    19    1
    13     1    19    1
    14     1     2    1
    15    25    24    1
    16    19    24    1
    17    19    20    1
    18    24    26    1
    19    24    27    1
    20     2     9    1
    21     2     3    1
    22    21    20    1
    23    10     9    1
    24     4     3    1
    25    20    23    1
    26    20    22    1
    27     9     7    1
    28     3     5    1
    29     7     5    2
    30     7     8    1
    31     5     6    1
