@<TRIPOS>MOLECULE
1,3,5,7,9
 10 10 0 0 0
SMALL
GASTEIGER

@<TRIPOS>ATOM
      1 C           5.0565    9.9495    8.3078 C.2     1  UNL1       -0.0763
      2 H           4.1663   10.4313    7.9232 H       1  UNL1        0.0578
      3 C           5.6299   10.1638    9.5820 C.3     1  UNL1        0.0054
      4 H           5.2600   10.8501   10.3326 H       1  UNL1        0.0394
      5 C           6.8255    9.4287    9.6484 C.2     1  UNL1       -0.0763
      6 H           7.5605    9.4883   10.4401 H       1  UNL1        0.0578
      7 C           6.9851    8.7392    8.4226 C.2     1  UNL1       -0.0654
      8 H           7.8642    8.1907    8.1134 H       1  UNL1        0.0615
      9 C           5.9038    9.0849    7.5885 C.2     1  UNL1       -0.0654
     10 H           5.7859    8.8071    6.5491 H       1  UNL1        0.0615
@<TRIPOS>BOND
     1    10     9    1
     2     9     1    2
     3     9     7    1
     4     2     1    1
     5     8     7    1
     6     1     3    1
     7     7     5    2
     8     3     5    1
     9     3     4    1
    10     5     6    1
