@<TRIPOS>MOLECULE
1,2,3,4,5
 10 10 0 0 0
SMALL
GASTEIGER

@<TRIPOS>ATOM
      1 C           1.3142    2.7979    0.1257 C.2     1  UNL1       -0.0763
      2 C           2.1085    3.8093    0.7110 C.3     1  UNL1        0.0054
      3 C           3.2549    3.1955    1.2620 C.2     1  UNL1       -0.0763
      4 C           3.1543    1.8049    1.0345 C.2     1  UNL1       -0.0654
      5 C           1.9671    1.5687    0.3124 C.2     1  UNL1       -0.0654
      6 H           0.4128    2.9590   -0.4530 H       1  UNL1        0.0578
      7 H           1.9386    4.8743    0.6102 H       1  UNL1        0.0394
      8 H           4.1191    3.7030    1.6731 H       1  UNL1        0.0578
      9 H           3.9140    1.0671    1.2569 H       1  UNL1        0.0615
     10 H           1.6502    0.6136   -0.0874 H       1  UNL1        0.0615
@<TRIPOS>BOND
     1     6     1    1
     2    10     5    1
     3     1     5    2
     4     1     2    1
     5     5     4    1
     6     7     2    1
     7     2     3    1
     8     4     9    1
     9     4     3    2
    10     3     8    1
