@<TRIPOS>MOLECULE
1,2,3,4,5
 25 25 0 0 0
SMALL
GASTEIGER

@<TRIPOS>ATOM
      1 C           9.9598    3.8677   17.0370 C.2     1  UNL1       -0.0477
      2 C          10.4694    5.0142   15.0989 C.3     1  UNL1        0.0231
      3 C          10.0209    5.1593   16.4545 C.2     1  UNL1       -0.0584
      4 C          10.6946    3.6228   14.8623 C.2     1  UNL1       -0.0584
      5 C          10.4125    2.9178   16.0745 C.2     1  UNL1       -0.0477
      6 C          10.8353    2.9778   13.5145 C.3     1  UNL1       -0.0424
      7 H           9.8418    2.8001   13.0926 H       1  UNL1        0.0275
      8 H          11.3514    2.0217   13.5784 H       1  UNL1        0.0275
      9 H          11.3889    3.6088   12.8222 H       1  UNL1        0.0275
     10 C           9.2113    3.5388   18.2937 C.3     1  UNL1       -0.0395
     11 H           8.1487    3.4349   18.0538 H       1  UNL1        0.0278
     12 H           9.2974    4.3265   19.0424 H       1  UNL1        0.0278
     13 H           9.5417    2.6019   18.7387 H       1  UNL1        0.0278
     14 C          10.3435    6.0620   14.0307 C.3     1  UNL1       -0.0510
     15 H           9.3268    6.0543   13.6274 H       1  UNL1        0.0242
     16 H          11.0354    5.8748   13.2119 H       1  UNL1        0.0242
     17 H          10.5436    7.0576   14.4233 H       1  UNL1        0.0242
     18 C          10.2294    1.4285   16.1470 C.3     1  UNL1       -0.0395
     19 H           9.3611    1.1373   15.5487 H       1  UNL1        0.0278
     20 H          10.0551    1.0933   17.1686 H       1  UNL1        0.0278
     21 H          11.0949    0.8945   15.7535 H       1  UNL1        0.0278
     22 C           9.4082    6.4005   17.0310 C.3     1  UNL1       -0.0424
     23 H           8.3433    6.4410   16.7825 H       1  UNL1        0.0275
     24 H           9.8808    7.2965   16.6314 H       1  UNL1        0.0275
     25 H           9.4999    6.4268   18.1163 H       1  UNL1        0.0275
@<TRIPOS>BOND
     1     9     6    1
     2     7     6    1
     3    16    14    1
     4     6     8    1
     5     6     4    1
     6    15    14    1
     7    14    17    1
     8    14     2    1
     9     4     2    1
    10     4     5    2
    11     2     3    1
    12    19    18    1
    13    21    18    1
    14     5    18    1
    15     5     1    1
    16    18    20    1
    17     3    22    1
    18     3     1    2
    19    24    22    1
    20    23    22    1
    21    22    25    1
    22     1    10    1
    23    11    10    1
    24    10    13    1
    25    10    12    1
