@<TRIPOS>MOLECULE
1,2,3,4,5
 25 25 0 0 0
SMALL
GASTEIGER

@<TRIPOS>ATOM
      1 C           2.7260    2.1054    4.1734 C.2     1  UNL1       -0.0658
      2 C           2.7263    0.7293    4.5134 C.2     1  UNL1       -0.0658
      3 C           1.9271    0.0204    3.5474 C.3     1  UNL1        0.0052
      4 C           1.5250    0.9659    2.5484 C.3     1  UNL1       -0.0053
      5 C           1.9763    2.2559    2.9496 C.3     1  UNL1        0.0052
      6 C           3.6457    3.1342    4.7651 C.3     1  UNL1       -0.0430
      7 C           3.6977    0.0864    5.4587 C.3     1  UNL1       -0.0430
      8 C           1.9263   -1.4690    3.3457 C.3     1  UNL1       -0.0545
      9 C           1.0560    0.6413    1.1618 C.3     1  UNL1       -0.0574
     10 C           2.0925    3.4059    1.9908 C.3     1  UNL1       -0.0545
     11 H           3.3108    4.1457    4.5434 H       1  UNL1        0.0275
     12 H           3.7176    3.0323    5.8477 H       1  UNL1        0.0275
     13 H           4.6493    3.0143    4.3475 H       1  UNL1        0.0275
     14 H           4.5674   -0.2491    4.8866 H       1  UNL1        0.0275
     15 H           3.2804   -0.7841    5.9621 H       1  UNL1        0.0275
     16 H           4.0490    0.7903    6.2112 H       1  UNL1        0.0275
     17 H           0.9389   -1.8322    3.0612 H       1  UNL1        0.0239
     18 H           2.2330   -1.9915    4.2489 H       1  UNL1        0.0239
     19 H           2.6294   -1.7318    2.5506 H       1  UNL1        0.0239
     20 H           0.8624   -0.4227    1.0598 H       1  UNL1        0.0236
     21 H           0.1545    1.1899    0.8909 H       1  UNL1        0.0236
     22 H           1.8408    0.9155    0.4514 H       1  UNL1        0.0236
     23 H           1.1813    3.5359    1.4095 H       1  UNL1        0.0239
     24 H           2.9040    3.1921    1.2885 H       1  UNL1        0.0239
     25 H           2.3278    4.3411    2.4926 H       1  UNL1        0.0239
@<TRIPOS>BOND
     1    22     9    1
     2    21     9    1
     3    20     9    1
     4     9     4    1
     5    24    10    1
     6    23    10    1
     7    10    25    1
     8    10     5    1
     9     4     5    1
    10     4     3    1
    11    19     8    1
    12     5     1    1
    13    17     8    1
    14     8     3    1
    15     8    18    1
    16     3     2    1
    17     1     2    2
    18     1     6    1
    19    13     6    1
    20     2     7    1
    21    11     6    1
    22     6    12    1
    23    14     7    1
    24     7    15    1
    25     7    16    1
