@<TRIPOS>MOLECULE
1,2,3,4,5
 25 25 0 0 0
SMALL
GASTEIGER

@<TRIPOS>ATOM
      1 C          11.6518    2.4320   10.1312 C.2     1  UNL1       -0.0658
      2 C          12.6318    1.7075   10.8824 C.3     1  UNL1        0.0052
      3 C          11.9985    0.5117   11.3736 C.3     1  UNL1       -0.0053
      4 C          10.6249    0.5460   11.0050 C.3     1  UNL1        0.0052
      5 C          10.4082    1.7479   10.2352 C.2     1  UNL1       -0.0658
      6 C          11.9262    3.5021    9.1210 C.3     1  UNL1       -0.0430
      7 C          14.1136    1.9287   10.7673 C.3     1  UNL1       -0.0545
      8 C          12.7173   -0.7178   11.8447 C.3     1  UNL1       -0.0574
      9 C           9.7026   -0.6380   11.0581 C.3     1  UNL1       -0.0545
     10 C           9.2619    2.0126    9.3035 C.3     1  UNL1       -0.0430
     11 H          11.6705    3.1239    8.1283 H       1  UNL1        0.0275
     12 H          11.3373    4.3992    9.3006 H       1  UNL1        0.0275
     13 H          12.9785    3.7701    9.1220 H       1  UNL1        0.0275
     14 H          14.4188    1.8267    9.7237 H       1  UNL1        0.0239
     15 H          14.3960    2.9231   11.1103 H       1  UNL1        0.0239
     16 H          14.6673    1.1938   11.3463 H       1  UNL1        0.0239
     17 H          13.0397   -1.2900   10.9709 H       1  UNL1        0.0236
     18 H          13.6025   -0.4760   12.4291 H       1  UNL1        0.0236
     19 H          12.0671   -1.3555   12.4393 H       1  UNL1        0.0236
     20 H           9.9334   -1.3155   10.2323 H       1  UNL1        0.0239
     21 H           9.8179   -1.1917   11.9885 H       1  UNL1        0.0239
     22 H           8.6609   -0.3398   10.9651 H       1  UNL1        0.0239
     23 H           9.5434    1.6861    8.2985 H       1  UNL1        0.0275
     24 H           8.3660    1.4692    9.5898 H       1  UNL1        0.0275
     25 H           9.0341    3.0756    9.2541 H       1  UNL1        0.0275
@<TRIPOS>BOND
     1    11     6    1
     2    23    10    1
     3     6    13    1
     4     6    12    1
     5     6     1    1
     6    25    10    1
     7    10    24    1
     8    10     5    1
     9    14     7    1
    10     1     5    2
    11     1     2    1
    12    20     9    1
    13     5     4    1
    14     7     2    1
    15     7    15    1
    16     7    16    1
    17     2     3    1
    18    22     9    1
    19    17     8    1
    20     4     9    1
    21     4     3    1
    22     9    21    1
    23     3     8    1
    24     8    18    1
    25     8    19    1
