@<TRIPOS>MOLECULE
2,3,4,5,6
 22 22 0 0 0
SMALL
GASTEIGER

@<TRIPOS>ATOM
      1 SI          0.5405    5.0138    8.7919 Si      1  UNL1        0.0000
      2 C           1.6467    4.3536    7.4188 C.3     1  UNL1        0.0000
      3 C           1.3117    3.4015    6.4187 C.2     1  UNL1        0.0000
      4 C           2.4966    3.0123    5.7514 C.2     1  UNL1        0.0000
      5 C           3.5736    3.7096    6.3365 C.2     1  UNL1        0.0000
      6 C           3.0560    4.5277    7.3515 C.2     1  UNL1        0.0000
      7 C          -1.1894    4.2131    8.6198 C.3     1  UNL1        0.0000
      8 C           0.4219    6.9190    8.7722 C.3     1  UNL1        0.0000
      9 C           1.3018    4.4580   10.4577 C.3     1  UNL1        0.0000
     10 H           0.3337    2.9525    6.2820 H       1  UNL1        0.0000
     11 H           2.5898    2.2213    5.0157 H       1  UNL1        0.0000
     12 H           4.6204    3.5599    6.1033 H       1  UNL1        0.0000
     13 H           3.6419    5.1247    8.0401 H       1  UNL1        0.0000
     14 H          -1.1416    3.1399    8.7796 H       1  UNL1        0.0000
     15 H          -1.6285    4.3836    7.6415 H       1  UNL1        0.0000
     16 H          -1.8719    4.6202    9.3585 H       1  UNL1        0.0000
     17 H           0.1047    7.2931    7.8026 H       1  UNL1        0.0000
     18 H           1.3887    7.3683    8.9833 H       1  UNL1        0.0000
     19 H          -0.2802    7.2802    9.5182 H       1  UNL1        0.0000
     20 H           1.4144    3.3792   10.5075 H       1  UNL1        0.0000
     21 H           0.6721    4.7618   11.2874 H       1  UNL1        0.0000
     22 H           2.2823    4.8971   10.6135 H       1  UNL1        0.0000
@<TRIPOS>BOND
     1    11     4    1
     2     4     5    1
     3     4     3    2
     4    12     5    1
     5    10     3    1
     6     5     6    2
     7     3     2    1
     8     6     2    1
     9     6    13    1
    10     2     1    1
    11    15     7    1
    12    17     8    1
    13     7    14    1
    14     7     1    1
    15     7    16    1
    16     8     1    1
    17     8    18    1
    18     8    19    1
    19     1     9    1
    20     9    20    1
    21     9    22    1
    22     9    21    1
