@<TRIPOS>MOLECULE
2,3,5,7,9
 22 22 0 0 0
SMALL
GASTEIGER

@<TRIPOS>ATOM
      1 SI          6.2083    7.6253    3.3949 Si      1  UNL1        0.0000
      2 C           6.1104    5.9391    4.2437 C.2     1  UNL1        0.0000
      3 C           5.1684    5.5324    5.2369 C.3     1  UNL1        0.0000
      4 H           4.3880    6.1614    5.6497 H       1  UNL1        0.0000
      5 C           7.0422    4.8987    4.1217 C.2     1  UNL1        0.0000
      6 H           7.9473    4.9369    3.5288 H       1  UNL1        0.0000
      7 C           5.5507    4.2706    5.7385 C.2     1  UNL1        0.0000
      8 H           5.1054    3.7539    6.5810 H       1  UNL1        0.0000
      9 C           6.6910    3.8504    5.0092 C.2     1  UNL1        0.0000
     10 H           7.3032    2.9894    5.2485 H       1  UNL1        0.0000
     11 C           6.4359    7.3908    1.5147 C.3     1  UNL1        0.0000
     12 H           6.5949    8.3452    1.0220 H       1  UNL1        0.0000
     13 H           5.5573    6.9310    1.0701 H       1  UNL1        0.0000
     14 H           7.2938    6.7616    1.2903 H       1  UNL1        0.0000
     15 C           4.6585    8.6521    3.8062 C.3     1  UNL1        0.0000
     16 H           4.6913    9.6103    3.2974 H       1  UNL1        0.0000
     17 H           4.5823    8.8517    4.8714 H       1  UNL1        0.0000
     18 H           3.7529    8.1426    3.4919 H       1  UNL1        0.0000
     19 C           7.7620    8.4816    4.1081 C.3     1  UNL1        0.0000
     20 H           7.8787    9.4684    3.6733 H       1  UNL1        0.0000
     21 H           8.6671    7.9207    3.8967 H       1  UNL1        0.0000
     22 H           7.6954    8.6025    5.1848 H       1  UNL1        0.0000
@<TRIPOS>BOND
     1    12    11    1
     2    13    11    1
     3    14    11    1
     4    11     1    1
     5    16    15    1
     6     1    15    1
     7     1    19    1
     8     1     2    1
     9    18    15    1
    10     6     5    1
    11    20    19    1
    12    15    17    1
    13    21    19    1
    14    19    22    1
    15     5     2    2
    16     5     9    1
    17     2     3    1
    18     9    10    1
    19     9     7    2
    20     3     4    1
    21     3     7    1
    22     7     8    1
