@<TRIPOS>MOLECULE
1,3,5,7,9
 10 10 0 0 0
SMALL
GASTEIGER

@<TRIPOS>ATOM
      1 C          11.8087    2.4113    1.5565 C.2     1  UNL1       -0.0763
      2 H          11.7548    3.4266    1.1871 H       1  UNL1        0.0578
      3 C          10.8029    1.4317    1.4251 C.2     1  UNL1       -0.0654
      4 H           9.8537    1.5696    0.9288 H       1  UNL1        0.0615
      5 C          11.1467    0.3349    2.2243 C.2     1  UNL1       -0.0654
      6 H          10.5468   -0.5475    2.3834 H       1  UNL1        0.0615
      7 C          12.3606    0.6251    2.8669 C.2     1  UNL1       -0.0763
      8 H          12.8192    0.0279    3.6392 H       1  UNL1        0.0578
      9 C          12.7755    1.9121    2.4610 C.3     1  UNL1        0.0054
     10 H          13.5781    2.4834    2.9075 H       1  UNL1        0.0394
@<TRIPOS>BOND
     1     4     3    1
     2     2     1    1
     3     3     1    2
     4     3     5    1
     5     1     9    1
     6     5     6    1
     7     5     7    2
     8     9     7    1
     9     9    10    1
    10     7     8    1
