@<TRIPOS>MOLECULE
1,3,5,7,9
 10 10 0 0 0
SMALL
GASTEIGER

@<TRIPOS>ATOM
      1 C          15.3711    1.4740    0.6453 C.2     1  UNL1       -0.0763
      2 H          15.9308    1.5232    1.5676 H       1  UNL1        0.0578
      3 C          15.4335    0.4287   -0.2989 C.2     1  UNL1       -0.0654
      4 H          16.0161   -0.4745   -0.2040 H       1  UNL1        0.0615
      5 C          14.7084    0.8201   -1.4347 C.2     1  UNL1       -0.0654
      6 H          14.6495    0.2679   -2.3607 H       1  UNL1        0.0615
      7 C          14.2118    2.1201   -1.2060 C.2     1  UNL1       -0.0763
      8 H          13.7692    2.7701   -1.9474 H       1  UNL1        0.0578
      9 C          14.6270    2.5261    0.0751 C.3     1  UNL1        0.0054
     10 H          14.5241    3.5223    0.4826 H       1  UNL1        0.0394
@<TRIPOS>BOND
     1     6     5    1
     2     8     7    1
     3     5     7    2
     4     5     3    1
     5     7     9    1
     6     3     4    1
     7     3     1    2
     8     9    10    1
     9     9     1    1
    10     1     2    1
