@<TRIPOS>MOLECULE
1,3,5,7,9
 10 10 0 0 0
SMALL
GASTEIGER

@<TRIPOS>ATOM
      1 C           0.2518   -0.2414    3.6405 C.2     1  UNL1       -0.0763
      2 H          -0.5106   -0.7494    3.0619 H       1  UNL1        0.0578
      3 C           1.4324   -0.8254    4.1605 C.2     1  UNL1       -0.0654
      4 H           1.7203   -1.8645    4.0560 H       1  UNL1        0.0615
      5 C           2.0407    0.1166    5.0169 C.2     1  UNL1       -0.0654
      6 H           2.8927   -0.0611    5.6616 H       1  UNL1        0.0615
      7 C           1.2527    1.2874    5.0099 C.2     1  UNL1       -0.0763
      8 H           1.3993    2.1389    5.6627 H       1  UNL1        0.0578
      9 C           0.1362    1.0565    4.1746 C.3     1  UNL1        0.0054
     10 H          -0.7199    1.7102    4.0621 H       1  UNL1        0.0394
@<TRIPOS>BOND
     1     2     1    1
     2     1     3    2
     3     1     9    1
     4     4     3    1
     5    10     9    1
     6     3     5    1
     7     9     7    1
     8     7     5    2
     9     7     8    1
    10     5     6    1
