@<TRIPOS>MOLECULE
1,3,5,7,9
 10 10 0 0 0
SMALL
GASTEIGER

@<TRIPOS>ATOM
      1 C           2.3304    0.9661    0.1254 C.2     1  UNL1       -0.0763
      2 H           2.2349    1.8317   -0.5193 H       1  UNL1        0.0578
      3 C           3.5399    0.4228    0.6138 C.3     1  UNL1        0.0054
      4 H           4.5348    0.7860    0.3866 H       1  UNL1        0.0394
      5 C           3.2375   -0.8017    1.2532 C.2     1  UNL1       -0.0763
      6 H           3.9639   -1.5201    1.6097 H       1  UNL1        0.0578
      7 C           1.8458   -1.0094    1.1588 C.2     1  UNL1       -0.0654
      8 H           1.3264   -1.9208    1.4261 H       1  UNL1        0.0615
      9 C           1.2815    0.0886    0.4778 C.2     1  UNL1       -0.0654
     10 H           0.2487    0.1852    0.1629 H       1  UNL1        0.0615
@<TRIPOS>BOND
     1     2     1    1
     2     1     9    2
     3     1     3    1
     4    10     9    1
     5     4     3    1
     6     9     7    1
     7     3     5    1
     8     7     5    2
     9     7     8    1
    10     5     6    1
