@<TRIPOS>MOLECULE
1,2,3,4,5
 25 25 0 0 0
SMALL
GASTEIGER

@<TRIPOS>ATOM
      1 C          -2.9832    2.4736   12.1929 C.3     1  UNL1        0.0231
      2 C          -3.0357    3.4596   11.1699 C.2     1  UNL1       -0.0584
      3 C          -2.1199    3.0717   10.1386 C.2     1  UNL1       -0.0477
      4 C          -1.5192    1.8398   10.5148 C.2     1  UNL1       -0.0477
      5 C          -2.0145    1.4920   11.8112 C.2     1  UNL1       -0.0584
      6 C          -3.8989    2.3849   13.3740 C.3     1  UNL1       -0.0510
      7 H          -4.2207    3.3729   13.6934 H       1  UNL1        0.0242
      8 H          -3.4106    1.8978   14.2146 H       1  UNL1        0.0242
      9 H          -4.7856    1.8046   13.1116 H       1  UNL1        0.0242
     10 C          -4.0164    4.5861   11.0768 C.3     1  UNL1       -0.0424
     11 H          -4.9267    4.2491   10.5771 H       1  UNL1        0.0275
     12 H          -3.6031    5.4142   10.5064 H       1  UNL1        0.0275
     13 H          -4.2856    4.9525   12.0643 H       1  UNL1        0.0275
     14 C          -2.0379    3.6976    8.7811 C.3     1  UNL1       -0.0395
     15 H          -1.1069    3.4349    8.2859 H       1  UNL1        0.0278
     16 H          -2.1055    4.7817    8.8407 H       1  UNL1        0.0278
     17 H          -2.8654    3.3426    8.1634 H       1  UNL1        0.0278
     18 C          -0.6942    0.9735    9.6196 C.3     1  UNL1       -0.0395
     19 H          -1.3428    0.4733    8.8979 H       1  UNL1        0.0278
     20 H          -0.1672    0.2127   10.1871 H       1  UNL1        0.0278
     21 H           0.0401    1.5582    9.0700 H       1  UNL1        0.0278
     22 C          -1.7881    0.1835   12.5029 C.3     1  UNL1       -0.0424
     23 H          -2.4470   -0.5807   12.0867 H       1  UNL1        0.0275
     24 H          -1.9934    0.2658   13.5672 H       1  UNL1        0.0275
     25 H          -0.7605   -0.1494   12.3801 H       1  UNL1        0.0275
@<TRIPOS>BOND
     1    17    14    1
     2    15    14    1
     3    14    16    1
     4    14     3    1
     5    19    18    1
     6    21    18    1
     7    18    20    1
     8    18     4    1
     9     3     4    1
    10     3     2    2
    11    12    10    1
    12     4     5    2
    13    11    10    1
    14    10     2    1
    15    10    13    1
    16     2     1    1
    17     5     1    1
    18     5    22    1
    19    23    22    1
    20     1     6    1
    21    25    22    1
    22    22    24    1
    23     9     6    1
    24     6     7    1
    25     6     8    1
