@<TRIPOS>MOLECULE
2,3,4,19,20
 34 34 0 0 0
SMALL
GASTEIGER

@<TRIPOS>ATOM
      1 SI         -3.7288    8.0613   18.3506 Si      1  UNL1        0.0000
      2 C          -3.5833    8.2343   15.4013 C.3     1  UNL1        0.0000
      3 C          -4.2717    7.7881   16.5604 C.3     1  UNL1        0.0000
      4 C          -5.4093    7.0686   16.1056 C.2     1  UNL1        0.0000
      5 C          -3.7382    9.9445   18.6773 C.3     1  UNL1        0.0000
      6 C          -1.9625    7.3612   18.5297 C.3     1  UNL1        0.0000
      7 C          -4.9535    7.1607   19.5016 C.3     1  UNL1        0.0000
      8 H          -2.7288    8.9024   15.4013 H       1  UNL1        0.0000
      9 H          -6.1888    6.6647   16.7410 H       1  UNL1        0.0000
     10 H          -4.7219   10.3737   18.5161 H       1  UNL1        0.0000
     11 H          -3.4538   10.1518   19.7031 H       1  UNL1        0.0000
     12 H          -3.0410   10.4689   18.0314 H       1  UNL1        0.0000
     13 H          -1.9592    6.2831   18.3734 H       1  UNL1        0.0000
     14 H          -1.2857    7.8001   17.7987 H       1  UNL1        0.0000
     15 H          -1.5502    7.5530   19.5157 H       1  UNL1        0.0000
     16 H          -4.9905    6.0997   19.2704 H       1  UNL1        0.0000
     17 H          -4.6553    7.2614   20.5401 H       1  UNL1        0.0000
     18 H          -5.9593    7.5606   19.4119 H       1  UNL1        0.0000
     19 C          -4.2714    7.7879   14.2422 C.3     1  UNL1        0.0000
     20 C          -5.4092    7.0685   14.6968 C.2     1  UNL1        0.0000
     21 SI         -3.7284    8.0610   12.4520 Si      1  UNL1        0.0000
     22 H          -6.1886    6.6645   14.0613 H       1  UNL1        0.0000
     23 C          -3.7351    9.9443   12.1259 C.3     1  UNL1        0.0000
     24 C          -1.9630    7.3587   12.2720 C.3     1  UNL1        0.0000
     25 C          -4.9546    7.1624   11.3010 C.3     1  UNL1        0.0000
     26 H          -4.7182   10.3749   12.2875 H       1  UNL1        0.0000
     27 H          -3.4507   10.1517   11.1001 H       1  UNL1        0.0000
     28 H          -3.0370   10.4675   12.7718 H       1  UNL1        0.0000
     29 H          -1.9610    6.2805   12.4280 H       1  UNL1        0.0000
     30 H          -1.2854    7.7966   13.0027 H       1  UNL1        0.0000
     31 H          -1.5510    7.5501   11.2858 H       1  UNL1        0.0000
     32 H          -4.9928    6.1014   11.5317 H       1  UNL1        0.0000
     33 H          -4.6568    7.2633   10.2624 H       1  UNL1        0.0000
     34 H          -5.9599    7.5635   11.3913 H       1  UNL1        0.0000
@<TRIPOS>BOND
     1    33    25    1
     2    27    23    1
     3    31    24    1
     4    25    34    1
     5    25    32    1
     6    25    21    1
     7    23    26    1
     8    23    21    1
     9    23    28    1
    10    24    29    1
    11    24    21    1
    12    24    30    1
    13    21    19    1
    14    22    20    1
    15    19    20    1
    16    19     2    1
    17    20     4    2
    18     2     8    1
    19     2     3    1
    20     4     3    1
    21     4     9    1
    22     3     1    1
    23    14     6    1
    24    12     5    1
    25     1     6    1
    26     1     5    1
    27     1     7    1
    28    13     6    1
    29    10     5    1
    30     6    15    1
    31     5    11    1
    32    16     7    1
    33    18     7    1
    34     7    17    1
