@<TRIPOS>MOLECULE
1,2,3,4,5
 10 10 0 0 0
SMALL
GASTEIGER

@<TRIPOS>ATOM
      1 C           1.3227    4.9108    1.9995 C.3     1  UNL1        0.0054
      2 C           2.0349    5.0522    3.2077 C.2     1  UNL1       -0.0763
      3 C           3.3296    4.5259    3.0087 C.2     1  UNL1       -0.0654
      4 C           3.4070    4.0388    1.6940 C.2     1  UNL1       -0.0654
      5 C           2.1626    4.2636    1.0671 C.2     1  UNL1       -0.0763
      6 H           0.3545    5.3475    1.7955 H       1  UNL1        0.0394
      7 H           1.6930    5.6012    4.0758 H       1  UNL1        0.0578
      8 H           4.1678    4.6277    3.6864 H       1  UNL1        0.0615
      9 H           4.3086    3.6977    1.2024 H       1  UNL1        0.0615
     10 H           1.9585    4.1226    0.0106 H       1  UNL1        0.0578
@<TRIPOS>BOND
     1    10     5    1
     2     5     4    2
     3     5     1    1
     4     9     4    1
     5     4     3    1
     6     6     1    1
     7     1     2    1
     8     3     2    2
     9     3     8    1
    10     2     7    1
