@<TRIPOS>MOLECULE
1,2,3,4,5
 10 10 0 0 0
SMALL
GASTEIGER

@<TRIPOS>ATOM
      1 C           1.7868    0.0221    3.0880 C.3     1  UNL1       -0.0127
      2 C           1.1299    0.2952    1.8709 C.3     1  UNL1       -0.0235
      3 C           2.0588    0.9010    0.9963 C.3     1  UNL1       -0.0127
      4 C           3.2988    0.9677    1.6665 C.2     1  UNL1       -0.0837
      5 C           3.1326    0.4245    2.9503 C.2     1  UNL1       -0.0837
      6 H           1.3657   -0.5316    3.9175 H       1  UNL1        0.0352
      7 H           0.1317   -0.0344    1.6165 H       1  UNL1        0.0315
      8 H           1.9031    1.1136   -0.0567 H       1  UNL1        0.0352
      9 H           4.2450    1.2427    1.2193 H       1  UNL1        0.0572
     10 H           3.9359    0.2026    3.6413 H       1  UNL1        0.0572
@<TRIPOS>BOND
     1     8     3    1
     2     3     4    1
     3     3     2    1
     4     9     4    1
     5     7     2    1
     6     4     5    2
     7     2     1    1
     8     5     1    1
     9     5    10    1
    10     1     6    1
