@<TRIPOS>MOLECULE
2,3,4,5,6
 34 34 0 0 0
SMALL
GASTEIGER

@<TRIPOS>ATOM
      1 SI          5.2156    7.0585    4.0150 Si      1  UNL1        0.0000
      2 C           6.0568    5.3986    4.3111 C.3     1  UNL1        0.0000
      3 C           5.5969    4.3185    5.1329 C.2     1  UNL1        0.0000
      4 C           6.7025    3.5084    5.4780 C.2     1  UNL1        0.0000
      5 C           7.8737    4.0853    4.9040 C.2     1  UNL1        0.0000
      6 C           7.4881    5.2353    4.1928 C.2     1  UNL1        0.0000
      7 C           4.2455    4.1912    5.7769 C.3     1  UNL1        0.0000
      8 H           3.9952    3.1505    5.9732 H       1  UNL1        0.0000
      9 H           3.4577    4.6180    5.1648 H       1  UNL1        0.0000
     10 H           4.2448    4.7177    6.7344 H       1  UNL1        0.0000
     11 C           6.7166    2.4202    6.5134 C.3     1  UNL1        0.0000
     12 H           6.9577    2.8439    7.4920 H       1  UNL1        0.0000
     13 H           7.4675    1.6645    6.2853 H       1  UNL1        0.0000
     14 H           5.7469    1.9336    6.5896 H       1  UNL1        0.0000
     15 C           9.2736    3.6914    5.2844 C.3     1  UNL1        0.0000
     16 H          10.0105    4.1557    4.6330 H       1  UNL1        0.0000
     17 H           9.4142    2.6106    5.2573 H       1  UNL1        0.0000
     18 H           9.4826    4.0211    6.3052 H       1  UNL1        0.0000
     19 C           8.4422    6.2636    3.6515 C.3     1  UNL1        0.0000
     20 H           8.7963    6.9002    4.4655 H       1  UNL1        0.0000
     21 H           7.9616    6.9023    2.9155 H       1  UNL1        0.0000
     22 H           9.3170    5.8024    3.1940 H       1  UNL1        0.0000
     23 C           6.1617    8.4299    4.9678 C.3     1  UNL1        0.0000
     24 H           5.5251    9.2937    5.1354 H       1  UNL1        0.0000
     25 H           7.0370    8.7733    4.4269 H       1  UNL1        0.0000
     26 H           6.4950    8.0761    5.9386 H       1  UNL1        0.0000
     27 C           5.1577    7.5686    2.1633 C.3     1  UNL1        0.0000
     28 H           4.4076    7.0072    1.6149 H       1  UNL1        0.0000
     29 H           6.1079    7.4231    1.6593 H       1  UNL1        0.0000
     30 H           4.9020    8.6201    2.0740 H       1  UNL1        0.0000
     31 C           3.4072    7.2211    4.6204 C.3     1  UNL1        0.0000
     32 H           3.0663    8.2383    4.4508 H       1  UNL1        0.0000
     33 H           3.3160    7.0224    5.6822 H       1  UNL1        0.0000
     34 H           2.7197    6.5657    4.0958 H       1  UNL1        0.0000
@<TRIPOS>BOND
     1    28    27    1
     2    29    27    1
     3    30    27    1
     4    27     1    1
     5    21    19    1
     6    22    19    1
     7    19     6    1
     8    19    20    1
     9     1     2    1
    10     1    31    1
    11     1    23    1
    12    34    31    1
    13     6     2    1
    14     6     5    2
    15     2     3    1
    16    25    23    1
    17    32    31    1
    18    31    33    1
    19    16    15    1
    20     5    15    1
    21     5     4    1
    22    23    24    1
    23    23    26    1
    24     3     4    2
    25     3     7    1
    26     9     7    1
    27    17    15    1
    28    15    18    1
    29     4    11    1
    30     7     8    1
    31     7    10    1
    32    13    11    1
    33    11    14    1
    34    11    12    1
