@<TRIPOS>MOLECULE
2,3,4,5,6
 34 34 0 0 0
SMALL
GASTEIGER

@<TRIPOS>ATOM
      1 SI         11.1829    5.9438    5.5835 Si      1  UNL1        0.0000
      2 C           9.2947    5.7594    5.6471 C.2     1  UNL1        0.0000
      3 C           8.4980    5.8373    6.8398 C.2     1  UNL1        0.0000
      4 C           7.1297    5.8760    6.4684 C.2     1  UNL1        0.0000
      5 C           7.0581    5.8584    5.0389 C.3     1  UNL1        0.0000
      6 C           8.3877    5.8070    4.5402 C.2     1  UNL1        0.0000
      7 C           8.9927    6.2285    8.2015 C.3     1  UNL1        0.0000
      8 H           8.9397    7.3161    8.2905 H       1  UNL1        0.0000
      9 H          10.0271    5.9386    8.3581 H       1  UNL1        0.0000
     10 H           8.3744    5.8147    8.9976 H       1  UNL1        0.0000
     11 C           5.9682    6.1920    7.3627 C.3     1  UNL1        0.0000
     12 H           5.8053    7.2720    7.3801 H       1  UNL1        0.0000
     13 H           6.1453    5.8699    8.3862 H       1  UNL1        0.0000
     14 H           5.0531    5.7266    7.0015 H       1  UNL1        0.0000
     15 C           5.8006    6.1577    4.2771 C.3     1  UNL1        0.0000
     16 H           5.0423    5.3866    4.4134 H       1  UNL1        0.0000
     17 H           6.0017    6.2657    3.2157 H       1  UNL1        0.0000
     18 H           5.3803    7.1002    4.6319 H       1  UNL1        0.0000
     19 C           8.7701    5.9772    3.1007 C.3     1  UNL1        0.0000
     20 H           7.9154    5.8133    2.4483 H       1  UNL1        0.0000
     21 H           9.5613    5.2983    2.7962 H       1  UNL1        0.0000
     22 H           9.1267    6.9953    2.9375 H       1  UNL1        0.0000
     23 C          11.9687    5.5906    3.8815 C.3     1  UNL1        0.0000
     24 H          11.7311    6.3559    3.1516 H       1  UNL1        0.0000
     25 H          11.6740    4.6321    3.4638 H       1  UNL1        0.0000
     26 H          13.0496    5.5738    3.9853 H       1  UNL1        0.0000
     27 C          11.6109    7.7325    6.0997 C.3     1  UNL1        0.0000
     28 H          12.6716    7.9205    5.9683 H       1  UNL1        0.0000
     29 H          11.3688    7.9313    7.1384 H       1  UNL1        0.0000
     30 H          11.0724    8.4552    5.4946 H       1  UNL1        0.0000
     31 C          12.0607    4.7108    6.7715 C.3     1  UNL1        0.0000
     32 H          13.0774    5.0498    6.9463 H       1  UNL1        0.0000
     33 H          12.1324    3.7156    6.3410 H       1  UNL1        0.0000
     34 H          11.5866    4.6146    7.7430 H       1  UNL1        0.0000
@<TRIPOS>BOND
     1    20    19    1
     2    21    19    1
     3    22    19    1
     4    19     6    1
     5    24    23    1
     6    17    15    1
     7    25    23    1
     8    23    26    1
     9    23     1    1
    10    15    16    1
    11    15    18    1
    12    15     5    1
    13     6     5    1
    14     6     2    2
    15     5     4    1
    16    30    27    1
    17     1     2    1
    18     1    27    1
    19     1    31    1
    20     2     3    1
    21    28    27    1
    22    27    29    1
    23    33    31    1
    24     4     3    2
    25     4    11    1
    26    31    32    1
    27    31    34    1
    28     3     7    1
    29    14    11    1
    30    11    12    1
    31    11    13    1
    32     7     8    1
    33     7     9    1
    34     7    10    1
