@<TRIPOS>MOLECULE
2,3,4,5,6
 22 22 0 0 0
SMALL
GASTEIGER

@<TRIPOS>ATOM
      1 SI          7.3587   24.8667    3.2888 Si      1  UNL1        0.0000
      2 C           7.1558   23.6683    5.9989 C.3     1  UNL1        0.0000
      3 C           7.1696   22.3940    6.5865 C.2     1  UNL1        0.0000
      4 C           7.1190   21.4359    5.5545 C.2     1  UNL1        0.0000
      5 C           7.1080   22.1231    4.3285 C.2     1  UNL1        0.0000
      6 C           7.1283   23.5183    4.5843 C.2     1  UNL1        0.0000
      7 H           7.2842   24.6088    6.5214 H       1  UNL1        0.0000
      8 H           7.3151   22.1813    7.6384 H       1  UNL1        0.0000
      9 H           7.2200   20.3636    5.6745 H       1  UNL1        0.0000
     10 H           7.1953   21.6690    3.3492 H       1  UNL1        0.0000
     11 C           8.8989   24.3996    2.2468 C.3     1  UNL1        0.0000
     12 H           9.1269   25.1767    1.5247 H       1  UNL1        0.0000
     13 H           8.7368   23.4788    1.6953 H       1  UNL1        0.0000
     14 H           9.7787   24.2598    2.8674 H       1  UNL1        0.0000
     15 C           7.6842   26.5225    4.1865 C.3     1  UNL1        0.0000
     16 H           7.7940   27.3340    3.4747 H       1  UNL1        0.0000
     17 H           8.5914   26.4873    4.7820 H       1  UNL1        0.0000
     18 H           6.8557   26.7666    4.8440 H       1  UNL1        0.0000
     19 C           5.8458   25.0191    2.1352 C.3     1  UNL1        0.0000
     20 H           5.6720   24.0894    1.6018 H       1  UNL1        0.0000
     21 H           5.9829   25.8079    1.4019 H       1  UNL1        0.0000
     22 H           4.9481   25.2365    2.7083 H       1  UNL1        0.0000
@<TRIPOS>BOND
     1    21    19    1
     2    12    11    1
     3    20    19    1
     4    13    11    1
     5    19    22    1
     6    19     1    1
     7    11    14    1
     8    11     1    1
     9     1    15    1
    10     1     6    1
    11    10     5    1
    12    16    15    1
    13    15    17    1
    14    15    18    1
    15     5     6    2
    16     5     4    1
    17     6     2    1
    18     4     9    1
    19     4     3    2
    20     2     7    1
    21     2     3    1
    22     3     8    1
