@<TRIPOS>MOLECULE
2,3,4,5,6
 22 22 0 0 0
SMALL
GASTEIGER

@<TRIPOS>ATOM
      1 SI          1.3156   22.5514    4.9658 Si      1  UNL1        0.0000
      2 C           3.6160   20.9698    5.9782 C.3     1  UNL1        0.0000
      3 C           4.5344   21.0130    7.0384 C.2     1  UNL1        0.0000
      4 C           4.3800   22.2472    7.7008 C.2     1  UNL1        0.0000
      5 C           3.3415   22.9501    7.0661 C.2     1  UNL1        0.0000
      6 C           2.8527   22.1706    5.9864 C.2     1  UNL1        0.0000
      7 H           3.4206   20.1140    5.3431 H       1  UNL1        0.0000
      8 H           5.1656   20.1959    7.3655 H       1  UNL1        0.0000
      9 H           4.8684   22.5420    8.6222 H       1  UNL1        0.0000
     10 H           2.9010   23.8762    7.4139 H       1  UNL1        0.0000
     11 C           1.5563   24.0728    3.8388 C.3     1  UNL1        0.0000
     12 H           2.3942   23.9201    3.1634 H       1  UNL1        0.0000
     13 H           1.7729   24.9589    4.4277 H       1  UNL1        0.0000
     14 H           0.6697   24.2714    3.2445 H       1  UNL1        0.0000
     15 C           0.8859   21.0093    3.9213 C.3     1  UNL1        0.0000
     16 H           0.0121   21.1904    3.3039 H       1  UNL1        0.0000
     17 H           0.6705   20.1468    4.5446 H       1  UNL1        0.0000
     18 H           1.7111   20.7550    3.2635 H       1  UNL1        0.0000
     19 C          -0.1145   22.9011    6.1941 C.3     1  UNL1        0.0000
     20 H          -1.0494   23.0529    5.6648 H       1  UNL1        0.0000
     21 H           0.0785   23.7949    6.7789 H       1  UNL1        0.0000
     22 H          -0.2602   22.0794    6.8887 H       1  UNL1        0.0000
@<TRIPOS>BOND
     1    12    11    1
     2    14    11    1
     3    18    15    1
     4    16    15    1
     5    11    13    1
     6    11     1    1
     7    15    17    1
     8    15     1    1
     9     1     6    1
    10     1    19    1
    11     7     2    1
    12    20    19    1
    13     2     6    1
    14     2     3    1
    15     6     5    2
    16    19    21    1
    17    19    22    1
    18     3     8    1
    19     3     4    2
    20     5    10    1
    21     5     4    1
    22     4     9    1
