@<TRIPOS>MOLECULE
2,3,4,5,6
 22 22 0 0 0
SMALL
GASTEIGER

@<TRIPOS>ATOM
      1 SI          2.9030    0.9137    2.2063 Si      1  UNL1        0.0000
      2 C           2.4148   -0.5319    4.7068 C.2     1  UNL1        0.0000
      3 C           2.8451   -0.5400    6.0486 C.2     1  UNL1        0.0000
      4 C           3.6188    0.6184    6.2600 C.2     1  UNL1        0.0000
      5 C           3.6439    1.3435    5.0508 C.3     1  UNL1        0.0000
      6 C           2.8953    0.6365    4.0723 C.2     1  UNL1        0.0000
      7 C           4.0708   -0.4210    1.4853 C.3     1  UNL1        0.0000
      8 C           3.5646    2.6378    1.7376 C.3     1  UNL1        0.0000
      9 C           1.1458    0.6252    1.5140 C.3     1  UNL1        0.0000
     10 H           1.9089   -1.3434    4.1989 H       1  UNL1        0.0000
     11 H           2.7076   -1.3498    6.7527 H       1  UNL1        0.0000
     12 H           4.1820    0.8578    7.1541 H       1  UNL1        0.0000
     13 H           4.2254    2.2373    4.8649 H       1  UNL1        0.0000
     14 H           3.7275   -1.4236    1.7206 H       1  UNL1        0.0000
     15 H           4.1254   -0.3380    0.4050 H       1  UNL1        0.0000
     16 H           5.0792   -0.3219    1.8745 H       1  UNL1        0.0000
     17 H           2.9758    3.4280    2.1930 H       1  UNL1        0.0000
     18 H           4.5968    2.7639    2.0515 H       1  UNL1        0.0000
     19 H           3.5321    2.7797    0.6619 H       1  UNL1        0.0000
     20 H           0.4646    1.3984    1.8603 H       1  UNL1        0.0000
     21 H           1.1502    0.6476    0.4285 H       1  UNL1        0.0000
     22 H           0.7491   -0.3407    1.8174 H       1  UNL1        0.0000
@<TRIPOS>BOND
     1    15     7    1
     2    21     9    1
     3    19     8    1
     4     7    14    1
     5     7    16    1
     6     7     1    1
     7     9    22    1
     8     9    20    1
     9     9     1    1
    10     8    18    1
    11     8    17    1
    12     8     1    1
    13     1     6    1
    14     6     2    2
    15     6     5    1
    16    10     2    1
    17     2     3    1
    18    13     5    1
    19     5     4    1
    20     3     4    2
    21     3    11    1
    22     4    12    1
