@<TRIPOS>MOLECULE
2,3,4,5,6
 22 22 0 0 0
SMALL
GASTEIGER

@<TRIPOS>ATOM
      1 SI          0.2975   -0.6225    8.8378 Si      1  UNL1        0.0000
      2 C          -0.5274    1.5836    7.0816 C.2     1  UNL1        0.0000
      3 C          -0.8772    1.8273    5.7440 C.2     1  UNL1        0.0000
      4 C          -0.6260    0.6432    5.0085 C.3     1  UNL1        0.0000
      5 C          -0.1593   -0.3286    5.9153 C.2     1  UNL1        0.0000
      6 C          -0.0516    0.2513    7.2031 C.2     1  UNL1        0.0000
      7 C           2.0111   -0.2135    9.5825 C.3     1  UNL1        0.0000
      8 C          -1.0515   -0.0630   10.0684 C.3     1  UNL1        0.0000
      9 C           0.1566   -2.5072    8.5444 C.3     1  UNL1        0.0000
     10 H          -0.6906    2.2676    7.9047 H       1  UNL1        0.0000
     11 H          -1.3631    2.7199    5.3696 H       1  UNL1        0.0000
     12 H          -0.8889    0.4798    3.9701 H       1  UNL1        0.0000
     13 H          -0.0202   -1.3790    5.6983 H       1  UNL1        0.0000
     14 H           2.2388    0.8453    9.4825 H       1  UNL1        0.0000
     15 H           2.0297   -0.4528   10.6419 H       1  UNL1        0.0000
     16 H           2.8166   -0.7701    9.1117 H       1  UNL1        0.0000
     17 H          -0.9295    0.9819   10.3361 H       1  UNL1        0.0000
     18 H          -2.0486   -0.1837    9.6557 H       1  UNL1        0.0000
     19 H          -1.0014   -0.6427   10.9845 H       1  UNL1        0.0000
     20 H           0.2958   -3.0434    9.4773 H       1  UNL1        0.0000
     21 H          -0.8214   -2.7752    8.1571 H       1  UNL1        0.0000
     22 H           0.9006   -2.8772    7.8449 H       1  UNL1        0.0000
@<TRIPOS>BOND
     1    12     4    1
     2     4     3    1
     3     4     5    1
     4    11     3    1
     5    13     5    1
     6     3     2    2
     7     5     6    2
     8     2     6    1
     9     2    10    1
    10     6     1    1
    11    22     9    1
    12    21     9    1
    13     9     1    1
    14     9    20    1
    15     1     7    1
    16     1     8    1
    17    16     7    1
    18    14     7    1
    19     7    15    1
    20    18     8    1
    21     8    17    1
    22     8    19    1
