@<TRIPOS>MOLECULE
4,5,6,7,8
 35 35 0 0 0
SMALL
GASTEIGER

@<TRIPOS>ATOM
      1 SI          5.2660    6.7069    4.9707 Si      1  UNL1        0.0000
      2 SI          5.5628    2.6928    0.7342 Si      1  UNL1        0.0000
      3 O           6.9139    4.6903    3.0749 O.3     1  UNL1        0.0000
      4 C           4.6732    5.3262    3.8244 C.3     1  UNL1        0.0000
      5 C           5.5643    4.5550    3.0262 C.3     1  UNL1        0.0000
      6 C           4.8276    3.7062    2.1518 C.3     1  UNL1        0.0000
      7 C           3.4447    4.0747    2.3241 C.2     1  UNL1        0.0000
      8 C           3.3523    5.0577    3.3209 C.2     1  UNL1        0.0000
      9 C           6.3078    7.9249    3.9421 C.3     1  UNL1        0.0000
     10 C           3.7295    7.5650    5.7078 C.3     1  UNL1        0.0000
     11 C           6.2958    5.8958    6.3590 C.3     1  UNL1        0.0000
     12 C           6.7732    3.8257   -0.2084 C.3     1  UNL1        0.0000
     13 C           4.1250    2.1639   -0.4036 C.3     1  UNL1        0.0000
     14 C           6.4402    1.1388    1.4088 C.3     1  UNL1        0.0000
     15 H           7.3100    3.8230    3.2916 H       1  UNL1        0.0000
     16 H           2.6369    3.7430    1.6843 H       1  UNL1        0.0000
     17 H           2.4630    5.6138    3.5878 H       1  UNL1        0.0000
     18 H           6.7387    8.6935    4.5758 H       1  UNL1        0.0000
     19 H           5.7118    8.4200    3.1808 H       1  UNL1        0.0000
     20 H           7.1203    7.4074    3.4420 H       1  UNL1        0.0000
     21 H           3.0910    6.8632    6.2368 H       1  UNL1        0.0000
     22 H           4.0294    8.3306    6.4154 H       1  UNL1        0.0000
     23 H           3.1301    8.0475    4.9417 H       1  UNL1        0.0000
     24 H           6.7378    6.6395    7.0148 H       1  UNL1        0.0000
     25 H           7.1042    5.3002    5.9436 H       1  UNL1        0.0000
     26 H           5.6812    5.2383    6.9709 H       1  UNL1        0.0000
     27 H           6.2512    4.6429   -0.6981 H       1  UNL1        0.0000
     28 H           7.3021    3.2675   -0.9743 H       1  UNL1        0.0000
     29 H           7.5127    4.2626    0.4556 H       1  UNL1        0.0000
     30 H           3.5933    3.0183   -0.8121 H       1  UNL1        0.0000
     31 H           4.5042    1.5868   -1.2404 H       1  UNL1        0.0000
     32 H           3.4047    1.5417    0.1200 H       1  UNL1        0.0000
     33 H           6.8890    0.5653    0.6033 H       1  UNL1        0.0000
     34 H           5.7402    0.4869    1.9274 H       1  UNL1        0.0000
     35 H           7.2279    1.3887    2.1139 H       1  UNL1        0.0000
@<TRIPOS>BOND
     1    31    13    1
     2    28    12    1
     3    30    13    1
     4    27    12    1
     5    13    32    1
     6    13     2    1
     7    12    29    1
     8    12     2    1
     9    33    14    1
    10     2    14    1
    11     2     6    1
    12    14    34    1
    13    14    35    1
    14    16     7    1
    15     6     7    1
    16     6     5    1
    17     7     8    2
    18     5     3    1
    19     5     4    1
    20     3    15    1
    21    19     9    1
    22     8    17    1
    23     8     4    1
    24    20     9    1
    25     4     1    1
    26     9    18    1
    27     9     1    1
    28    23    10    1
    29     1    10    1
    30     1    11    1
    31    10    21    1
    32    10    22    1
    33    25    11    1
    34    11    26    1
    35    11    24    1
