@<TRIPOS>MOLECULE
1,2,3,4,5
 10 10 0 0 0
SMALL
GASTEIGER

@<TRIPOS>ATOM
      1 C           2.0596   -0.3435    6.4963 C.3     1  UNL1       -0.0127
      2 C           2.4605   -0.4161    5.1263 C.3     1  UNL1       -0.0235
      3 C           3.8381   -0.7360    5.1190 C.3     1  UNL1       -0.0127
      4 C           4.2724   -0.8965    6.4647 C.2     1  UNL1       -0.0837
      5 C           3.1843   -0.6834    7.3002 C.2     1  UNL1       -0.0837
      6 H           1.0367   -0.3547    6.8524 H       1  UNL1        0.0352
      7 H           1.7961   -0.4466    4.2767 H       1  UNL1        0.0315
      8 H           4.4149   -1.0126    4.2445 H       1  UNL1        0.0352
      9 H           5.2556   -1.2146    6.7753 H       1  UNL1        0.0572
     10 H           3.1725   -0.7936    8.3758 H       1  UNL1        0.0572
@<TRIPOS>BOND
     1     8     3    1
     2     7     2    1
     3     3     2    1
     4     3     4    1
     5     2     1    1
     6     4     9    1
     7     4     5    2
     8     1     6    1
     9     1     5    1
    10     5    10    1
