@<TRIPOS>MOLECULE
1,2,3,4,5
 10 10 0 0 0
SMALL
GASTEIGER

@<TRIPOS>ATOM
      1 C           2.1357   -1.4141   15.3048 C.2     1  UNL1       -0.0654
      2 C           0.9198   -2.0361   15.5998 C.2     1  UNL1       -0.0763
      3 C          -0.0779   -1.4696   14.7416 C.3     1  UNL1        0.0054
      4 C           0.5804   -0.5349   13.8783 C.2     1  UNL1       -0.0763
      5 C           1.9274   -0.4923   14.2483 C.2     1  UNL1       -0.0654
      6 H           3.0983   -1.6812   15.7195 H       1  UNL1        0.0615
      7 H           0.7899   -2.8928   16.2402 H       1  UNL1        0.0578
      8 H          -1.0423   -1.9230   14.5365 H       1  UNL1        0.0394
      9 H           0.1525   -0.0720   13.0045 H       1  UNL1        0.0578
     10 H           2.7068    0.0517   13.7318 H       1  UNL1        0.0615
@<TRIPOS>BOND
     1     9     4    1
     2    10     5    1
     3     4     5    2
     4     4     3    1
     5     5     1    1
     6     8     3    1
     7     3     2    1
     8     1     2    2
     9     1     6    1
    10     2     7    1
