@<TRIPOS>MOLECULE
1,2,3,4,5
 10 10 0 0 0
SMALL
GASTEIGER

@<TRIPOS>ATOM
      1 C           4.1765    3.0494    4.5211 C.2     1  UNL1       -0.0763
      2 C           4.5011    3.4099    5.8645 C.3     1  UNL1        0.0054
      3 C           5.5223    2.5236    6.3183 C.2     1  UNL1       -0.0763
      4 C           5.7676    1.6038    5.2923 C.2     1  UNL1       -0.0654
      5 C           4.9456    1.9316    4.1826 C.2     1  UNL1       -0.0654
      6 H           3.5648    3.6227    3.8436 H       1  UNL1        0.0578
      7 H           4.2566    4.3549    6.3384 H       1  UNL1        0.0394
      8 H           6.0735    2.6229    7.2406 H       1  UNL1        0.0578
      9 H           6.5446    0.8521    5.2898 H       1  UNL1        0.0615
     10 H           4.9871    1.4647    3.2075 H       1  UNL1        0.0615
@<TRIPOS>BOND
     1    10     5    1
     2     6     1    1
     3     5     1    2
     4     5     4    1
     5     1     2    1
     6     9     4    1
     7     4     3    2
     8     2     3    1
     9     2     7    1
    10     3     8    1
