@<TRIPOS>MOLECULE
1,2,3,4,5
 10 10 0 0 0
SMALL
GASTEIGER

@<TRIPOS>ATOM
      1 C           2.5507    0.9281   17.2534 C.2     1  UNL1       -0.0654
      2 C           1.4580    0.9848   18.1228 C.2     1  UNL1       -0.0763
      3 C           0.5241    1.9289   17.5852 C.3     1  UNL1        0.0054
      4 C           1.1105    2.4864   16.4028 C.2     1  UNL1       -0.0763
      5 C           2.3375    1.8501   16.1979 C.2     1  UNL1       -0.0654
      6 H           3.4643    0.3743   17.4232 H       1  UNL1        0.0615
      7 H           1.4016    0.5247   19.0955 H       1  UNL1        0.0578
      8 H          -0.2749    2.3942   18.1528 H       1  UNL1        0.0394
      9 H           0.7481    3.3458   15.8632 H       1  UNL1        0.0578
     10 H           3.0628    2.1074   15.4378 H       1  UNL1        0.0615
@<TRIPOS>BOND
     1    10     5    1
     2     9     4    1
     3     5     4    2
     4     5     1    1
     5     4     3    1
     6     1     6    1
     7     1     2    2
     8     3     2    1
     9     3     8    1
    10     2     7    1
