@<TRIPOS>MOLECULE
1,2,3,4,5
 25 25 0 0 0
SMALL
GASTEIGER

@<TRIPOS>ATOM
      1 C           0.3184    6.8455    4.7498 C.2     1  UNL1       -0.0658
      2 C          -0.6303    7.3549    3.8121 C.2     1  UNL1       -0.0658
      3 C          -1.0660    8.6237    4.2859 C.3     1  UNL1        0.0052
      4 C          -0.4158    8.8873    5.5496 C.3     1  UNL1       -0.0053
      5 C           0.4329    7.7823    5.8392 C.3     1  UNL1        0.0052
      6 C           0.7883    5.4253    4.8238 C.3     1  UNL1       -0.0430
      7 H           0.0858    4.8621    5.4422 H       1  UNL1        0.0275
      8 H           1.7721    5.3506    5.2828 H       1  UNL1        0.0275
      9 H           0.8230    4.9518    3.8451 H       1  UNL1        0.0275
     10 C          -1.3062    6.5443    2.7487 C.3     1  UNL1       -0.0430
     11 H          -0.6171    5.8745    2.2392 H       1  UNL1        0.0275
     12 H          -1.7914    7.1744    2.0075 H       1  UNL1        0.0275
     13 H          -2.0770    5.9309    3.2212 H       1  UNL1        0.0275
     14 C          -2.2686    9.3728    3.8000 C.3     1  UNL1       -0.0545
     15 H          -3.1346    9.0486    4.3813 H       1  UNL1        0.0239
     16 H          -2.4776    9.1755    2.7511 H       1  UNL1        0.0239
     17 H          -2.1582   10.4468    3.9371 H       1  UNL1        0.0239
     18 C          -0.8472    9.9502    6.5136 C.3     1  UNL1       -0.0574
     19 H          -1.7582    9.6252    7.0205 H       1  UNL1        0.0236
     20 H          -1.0617   10.8875    6.0043 H       1  UNL1        0.0236
     21 H          -0.0858   10.1351    7.2675 H       1  UNL1        0.0236
     22 C           1.0784    7.4729    7.1548 C.3     1  UNL1       -0.0545
     23 H           1.2026    8.3713    7.7539 H       1  UNL1        0.0239
     24 H           2.0574    7.0145    7.0251 H       1  UNL1        0.0239
     25 H           0.4479    6.7749    7.7096 H       1  UNL1        0.0239
@<TRIPOS>BOND
     1    12    10    1
     2    11    10    1
     3    10    13    1
     4    10     2    1
     5    16    14    1
     6    14    17    1
     7    14     3    1
     8    14    15    1
     9     2     3    1
    10     2     1    2
    11     9     6    1
    12     3     4    1
    13     1     6    1
    14     1     5    1
    15     6     8    1
    16     6     7    1
    17     4     5    1
    18     4    18    1
    19     5    22    1
    20    20    18    1
    21    18    19    1
    22    18    21    1
    23    24    22    1
    24    22    25    1
    25    22    23    1
