@<TRIPOS>MOLECULE
1,2,7,8,13
 49 51 0 0 0
SMALL
GASTEIGER

@<TRIPOS>ATOM
      1 C          -0.7466    6.0946   14.0785 C.3     1  UNL1        0.0329
      2 C          -1.2489    5.0667   13.2124 C.ar    1  UNL1       -0.0248
      3 C          -2.5299    4.8189   12.6509 C.ar    1  UNL1       -0.0426
      4 C          -2.6597    3.8086   11.7132 C.ar    1  UNL1       -0.0441
      5 C          -1.5390    3.0440   11.2994 C.ar    1  UNL1       -0.0438
      6 C          -0.3005    3.2030   11.9045 C.ar    1  UNL1       -0.0393
      7 C          -0.1886    4.1086   12.9862 C.ar    1  UNL1       -0.0098
      8 C           0.8444    4.3739   13.9707 C.ar    1  UNL1       -0.0098
      9 C           1.9135    3.5957   14.4648 C.ar    1  UNL1       -0.0393
     10 C           2.8187    4.2015   15.3247 C.ar    1  UNL1       -0.0438
     11 C           2.5721    5.4917   15.8475 C.ar    1  UNL1       -0.0441
     12 C           1.3638    6.1364   15.6247 C.ar    1  UNL1       -0.0426
     13 C           0.5058    5.6205   14.6221 C.ar    1  UNL1       -0.0248
     14 C          -1.4326    7.3966   14.4134 C.3     1  UNL1       -0.0503
     15 H          -2.0341    7.3333   15.3259 H       1  UNL1        0.0242
     16 H          -2.0868    7.6978   13.5949 H       1  UNL1        0.0242
     17 H          -0.6864    8.1796   14.5516 H       1  UNL1        0.0242
     18 C          -3.7319    5.5824   13.1431 C.3     1  UNL1       -0.0391
     19 H          -4.5806    4.9115   13.2575 H       1  UNL1        0.0278
     20 H          -4.0213    6.3800   12.4570 H       1  UNL1        0.0278
     21 H          -3.5298    6.0155   14.1161 H       1  UNL1        0.0278
     22 C          -3.9861    3.5429   11.0545 C.3     1  UNL1       -0.0392
     23 H          -4.6798    4.3635   11.2012 H       1  UNL1        0.0278
     24 H          -4.4400    2.6355   11.4546 H       1  UNL1        0.0278
     25 H          -3.8569    3.4092    9.9830 H       1  UNL1        0.0278
     26 C          -1.7172    2.0332   10.1985 C.3     1  UNL1       -0.0392
     27 H          -0.8865    1.3368   10.1616 H       1  UNL1        0.0278
     28 H          -1.7965    2.5220    9.2255 H       1  UNL1        0.0278
     29 H          -2.6252    1.4557   10.3569 H       1  UNL1        0.0278
     30 C           0.9300    2.5501   11.3289 C.3     1  UNL1       -0.0389
     31 H           0.9237    2.6572   10.2446 H       1  UNL1        0.0278
     32 H           0.9898    1.4856   11.5537 H       1  UNL1        0.0278
     33 H           1.8229    3.0440   11.7071 H       1  UNL1        0.0278
     34 C           1.9803    2.1205   14.1788 C.3     1  UNL1       -0.0389
     35 H           2.1722    1.5808   15.1051 H       1  UNL1        0.0278
     36 H           2.7674    1.8684   13.4700 H       1  UNL1        0.0278
     37 H           1.0253    1.7794   13.7924 H       1  UNL1        0.0278
     38 C           4.0646    3.4822   15.7604 C.3     1  UNL1       -0.0392
     39 H           4.0886    2.4605   15.4005 H       1  UNL1        0.0278
     40 H           4.1499    3.4710   16.8461 H       1  UNL1        0.0278
     41 H           4.9395    3.9916   15.3564 H       1  UNL1        0.0278
     42 C           3.5974    6.1285   16.7439 C.3     1  UNL1       -0.0392
     43 H           3.5096    7.2105   16.7135 H       1  UNL1        0.0278
     44 H           4.6002    5.8683   16.4186 H       1  UNL1        0.0278
     45 H           3.4806    5.7966   17.7769 H       1  UNL1        0.0278
     46 C           0.9558    7.3091   16.4761 C.3     1  UNL1       -0.0391
     47 H           1.4228    7.2465   17.4552 H       1  UNL1        0.0278
     48 H          -0.1195    7.3081   16.6227 H       1  UNL1        0.0278
     49 H           1.2498    8.2517   16.0141 H       1  UNL1        0.0278
@<TRIPOS>BOND
     1    28    26    1
     2    25    22    1
     3    27    26    1
     4    26    29    1
     5    26     5    1
     6    31    30    1
     7    22    23    1
     8    22    24    1
     9    22     4    1
    10     5     4   ar
    11     5     6   ar
    12    30    32    1
    13    30    33    1
    14    30     6    1
    15     4     3   ar
    16     6     7   ar
    17    20    18    1
    18     3    18    1
    19     3     2   ar
    20     7     2   ar
    21     7     8    1
    22    18    19    1
    23    18    21    1
    24     2     1    1
    25    36    34    1
    26    16    14    1
    27    37    34    1
    28     8     9   ar
    29     8    13   ar
    30     1    14    1
    31     1    13    1
    32    34     9    1
    33    34    35    1
    34    14    17    1
    35    14    15    1
    36     9    10   ar
    37    13    12   ar
    38    10    38    1
    39    10    11   ar
    40    41    38    1
    41    39    38    1
    42    12    11   ar
    43    12    46    1
    44    38    40    1
    45    11    42    1
    46    49    46    1
    47    44    42    1
    48    46    48    1
    49    46    47    1
    50    43    42    1
    51    42    45    1
