@<TRIPOS>MOLECULE
3,5,6,8,10
 34 34 0 0 0
SMALL
GASTEIGER

@<TRIPOS>ATOM
      1 SI         -1.3552    9.5448   11.2202 Si      1  UNL1        0.0000
      2 SI          2.6919    6.2011    8.8614 Si      1  UNL1        0.0000
      3 C           0.8782    7.8719   10.4060 C.3     1  UNL1        0.0000
      4 H           1.5592    8.7145   10.3760 H       1  UNL1        0.0000
      5 C           1.1452    6.5933    9.8637 C.3     1  UNL1        0.0000
      6 C          -0.0501    5.8317   10.0134 C.2     1  UNL1        0.0000
      7 H          -0.2220    4.8538    9.5821 H       1  UNL1        0.0000
      8 C          -1.0261    6.6471   10.6204 C.2     1  UNL1        0.0000
      9 H          -2.0738    6.4013   10.7218 H       1  UNL1        0.0000
     10 C          -0.4573    7.9242   10.8928 C.3     1  UNL1        0.0000
     11 C          -3.2456    9.2350   11.2459 C.3     1  UNL1        0.0000
     12 H          -3.5789    8.7120   12.1368 H       1  UNL1        0.0000
     13 H          -3.5673    8.6622   10.3821 H       1  UNL1        0.0000
     14 H          -3.7714   10.1835   11.2192 H       1  UNL1        0.0000
     15 C          -0.9743   10.6649    9.7152 C.3     1  UNL1        0.0000
     16 H          -1.5709   11.5715    9.7421 H       1  UNL1        0.0000
     17 H          -1.1826   10.1603    8.7765 H       1  UNL1        0.0000
     18 H           0.0699   10.9612    9.7023 H       1  UNL1        0.0000
     19 C          -0.8377   10.4818   12.8044 C.3     1  UNL1        0.0000
     20 H          -1.5461   10.3485   13.6160 H       1  UNL1        0.0000
     21 H          -0.7764   11.5470   12.6037 H       1  UNL1        0.0000
     22 H           0.1391   10.1596   13.1529 H       1  UNL1        0.0000
     23 C           3.1108    4.3381    8.8164 C.3     1  UNL1        0.0000
     24 H           3.3708    3.9629    9.7996 H       1  UNL1        0.0000
     25 H           3.9569    4.1642    8.1592 H       1  UNL1        0.0000
     26 H           2.2803    3.7521    8.4336 H       1  UNL1        0.0000
     27 C           2.3015    6.7315    7.0614 C.3     1  UNL1        0.0000
     28 H           3.1716    6.6020    6.4271 H       1  UNL1        0.0000
     29 H           2.0062    7.7743    7.0072 H       1  UNL1        0.0000
     30 H           1.4955    6.1419    6.6369 H       1  UNL1        0.0000
     31 C           4.1278    7.2857    9.5026 C.3     1  UNL1        0.0000
     32 H           4.1149    7.3615   10.5867 H       1  UNL1        0.0000
     33 H           4.0729    8.2915    9.0960 H       1  UNL1        0.0000
     34 H           5.0883    6.8706    9.2154 H       1  UNL1        0.0000
@<TRIPOS>BOND
     1    28    27    1
     2    30    27    1
     3    29    27    1
     4    27     2    1
     5    25    23    1
     6    26    23    1
     7    17    15    1
     8    23     2    1
     9    23    24    1
    10     2    31    1
    11     2     5    1
    12    33    31    1
    13    34    31    1
    14    31    32    1
    15     7     6    1
    16    18    15    1
    17    15    16    1
    18    15     1    1
    19     5     6    1
    20     5     3    1
    21     6     8    2
    22     4     3    1
    23    13    11    1
    24     3    10    1
    25     8     9    1
    26     8    10    1
    27    10     1    1
    28    14    11    1
    29     1    11    1
    30     1    19    1
    31    11    12    1
    32    21    19    1
    33    19    22    1
    34    19    20    1
