@<TRIPOS>MOLECULE
3,4,6,7,9
 34 34 0 0 0
SMALL
GASTEIGER

@<TRIPOS>ATOM
      1 SI         12.5163    1.6372    4.4630 Si      1  UNL1        0.0000
      2 SI          7.3331    2.3645    7.1400 Si      1  UNL1        0.0000
      3 C          10.7527    2.1680    4.8255 C.2     1  UNL1        0.0000
      4 C           9.9035    1.7021    5.8575 C.2     1  UNL1        0.0000
      5 H          10.1707    0.9552    6.5935 H       1  UNL1        0.0000
      6 C           8.7037    2.4561    5.8633 C.2     1  UNL1        0.0000
      7 C           8.8115    3.4064    4.8040 C.3     1  UNL1        0.0000
      8 H           8.1172    4.2266    4.6439 H       1  UNL1        0.0000
      9 C          10.0624    3.2297    4.1763 C.2     1  UNL1        0.0000
     10 H          10.5189    3.8849    3.4459 H       1  UNL1        0.0000
     11 C          13.6510    3.1791    4.4882 C.3     1  UNL1        0.0000
     12 H          13.5966    3.6959    5.4407 H       1  UNL1        0.0000
     13 H          13.3767    3.8891    3.7145 H       1  UNL1        0.0000
     14 H          14.6866    2.9004    4.3236 H       1  UNL1        0.0000
     15 C          13.1223    0.3849    5.7654 C.3     1  UNL1        0.0000
     16 H          13.1148    0.8131    6.7627 H       1  UNL1        0.0000
     17 H          14.1362    0.0613    5.5535 H       1  UNL1        0.0000
     18 H          12.4904   -0.4973    5.7775 H       1  UNL1        0.0000
     19 C          12.5609    0.8843    2.7024 C.3     1  UNL1        0.0000
     20 H          13.5137    1.0550    2.2101 H       1  UNL1        0.0000
     21 H          11.7778    1.3222    2.0822 H       1  UNL1        0.0000
     22 H          12.3969   -0.1890    2.7308 H       1  UNL1        0.0000
     23 C           7.1220    4.0578    8.0067 C.3     1  UNL1        0.0000
     24 H           6.8593    4.8386    7.3002 H       1  UNL1        0.0000
     25 H           8.0350    4.3632    8.5075 H       1  UNL1        0.0000
     26 H           6.3359    4.0142    8.7535 H       1  UNL1        0.0000
     27 C           7.7117    1.0308    8.4478 C.3     1  UNL1        0.0000
     28 H           7.8489    0.0582    7.9862 H       1  UNL1        0.0000
     29 H           6.8999    0.9446    9.1629 H       1  UNL1        0.0000
     30 H           8.6145    1.2648    9.0029 H       1  UNL1        0.0000
     31 C           5.7342    1.9518    6.1785 C.3     1  UNL1        0.0000
     32 H           5.7889    0.9475    5.7599 H       1  UNL1        0.0000
     33 H           5.5972    2.6459    5.3512 H       1  UNL1        0.0000
     34 H           4.8491    2.0056    6.8044 H       1  UNL1        0.0000
@<TRIPOS>BOND
     1    21    19    1
     2    20    19    1
     3    19    22    1
     4    19     1    1
     5    10     9    1
     6    13    11    1
     7     9     7    1
     8     9     3    2
     9    14    11    1
    10     1    11    1
    11     1     3    1
    12     1    15    1
    13    11    12    1
    14     8     7    1
    15     7     6    1
    16     3     4    1
    17    33    31    1
    18    17    15    1
    19    32    31    1
    20    15    18    1
    21    15    16    1
    22     4     6    2
    23     4     5    1
    24     6     2    1
    25    31    34    1
    26    31     2    1
    27     2    23    1
    28     2    27    1
    29    24    23    1
    30    28    27    1
    31    23    25    1
    32    23    26    1
    33    27    30    1
    34    27    29    1
