@<TRIPOS>MOLECULE
1,2,8,9,13
 49 51 0 0 0
SMALL
GASTEIGER

@<TRIPOS>ATOM
      1 C           7.7329    0.0640    1.8157 C.3     1  UNL1        0.0329
      2 C           8.6776    0.9567    1.2092 C.ar    1  UNL1       -0.0248
      3 C           9.8163    0.7111    0.3913 C.ar    1  UNL1       -0.0426
      4 C          10.5917    1.7809   -0.0213 C.ar    1  UNL1       -0.0441
      5 C          10.2418    3.1132    0.3138 C.ar    1  UNL1       -0.0438
      6 C           9.1122    3.3933    1.0682 C.ar    1  UNL1       -0.0393
      7 C           5.4040    0.4959    2.9024 C.ar    1  UNL1       -0.0426
      8 C           8.2599    2.3272    1.4604 C.ar    1  UNL1       -0.0098
      9 C           6.9493    2.2644    2.0852 C.ar    1  UNL1       -0.0098
     10 C           5.8841    3.1970    2.1730 C.ar    1  UNL1       -0.0393
     11 C           4.7316    2.8347    2.8558 C.ar    1  UNL1       -0.0438
     12 C           4.5156    1.4959    3.2621 C.ar    1  UNL1       -0.0441
     13 C           6.6582    0.8592    2.3375 C.ar    1  UNL1       -0.0248
     14 C           7.8518   -1.4432    1.8842 C.3     1  UNL1       -0.0503
     15 H           7.3500   -1.9321    1.0431 H       1  UNL1        0.0242
     16 H           7.4158   -1.8260    2.8060 H       1  UNL1        0.0242
     17 H           8.8971   -1.7490    1.8786 H       1  UNL1        0.0242
     18 C          10.1236   -0.6796   -0.0998 C.3     1  UNL1       -0.0391
     19 H          10.6190   -0.6428   -1.0659 H       1  UNL1        0.0278
     20 H           9.2048   -1.2403   -0.2323 H       1  UNL1        0.0278
     21 H          10.7696   -1.2166    0.5966 H       1  UNL1        0.0278
     22 C          11.8565    1.5382   -0.8042 C.3     1  UNL1       -0.0392
     23 H          12.2701    0.5596   -0.5820 H       1  UNL1        0.0278
     24 H          12.6139    2.2732   -0.5480 H       1  UNL1        0.0278
     25 H          11.6706    1.5993   -1.8776 H       1  UNL1        0.0278
     26 C          11.1090    4.2392   -0.1867 C.3     1  UNL1       -0.0392
     27 H          10.5563    5.1715   -0.2422 H       1  UNL1        0.0278
     28 H          11.4757    4.0224   -1.1864 H       1  UNL1        0.0278
     29 H          11.9706    4.3918    0.4668 H       1  UNL1        0.0278
     30 C           8.8738    4.8146    1.5187 C.3     1  UNL1       -0.0389
     31 H           9.8086    5.2633    1.8531 H       1  UNL1        0.0278
     32 H           8.1744    4.8434    2.3476 H       1  UNL1        0.0278
     33 H           8.4891    5.4415    0.7138 H       1  UNL1        0.0278
     34 C           5.8814    4.4563    1.3448 C.3     1  UNL1       -0.0389
     35 H           4.9050    4.5682    0.8759 H       1  UNL1        0.0278
     36 H           6.6110    4.3662    0.5476 H       1  UNL1        0.0278
     37 H           6.0810    5.3618    1.9176 H       1  UNL1        0.0278
     38 C           3.6439    3.8460    3.1045 C.3     1  UNL1       -0.0392
     39 H           3.9284    4.8372    2.7701 H       1  UNL1        0.0278
     40 H           3.4310    3.9154    4.1715 H       1  UNL1        0.0278
     41 H           2.7217    3.5613    2.5985 H       1  UNL1        0.0278
     42 C           3.2394    1.1505    3.9821 C.3     1  UNL1       -0.0392
     43 H           3.3748    0.2841    4.6226 H       1  UNL1        0.0278
     44 H           2.4392    0.9372    3.2717 H       1  UNL1        0.0278
     45 H           2.9122    1.9721    4.6111 H       1  UNL1        0.0278
     46 C           5.0047   -0.9515    3.0281 C.3     1  UNL1       -0.0391
     47 H           3.9261   -1.0538    3.0925 H       1  UNL1        0.0278
     48 H           5.4453   -1.4083    3.9164 H       1  UNL1        0.0278
     49 H           5.3285   -1.5044    2.1524 H       1  UNL1        0.0278
@<TRIPOS>BOND
     1    25    22    1
     2    28    26    1
     3    19    18    1
     4    22    23    1
     5    22    24    1
     6    22     4    1
     7    27    26    1
     8    20    18    1
     9    26     5    1
    10    26    29    1
    11    18     3    1
    12    18    21    1
    13     4     5   ar
    14     4     3   ar
    15     5     6   ar
    16     3     2   ar
    17    36    34    1
    18    33    30    1
    19    35    34    1
    20    15    14    1
    21     6     8   ar
    22     6    30    1
    23     2     8   ar
    24     2     1    1
    25    34    37    1
    26    34    10    1
    27     8     9    1
    28    30    31    1
    29    30    32    1
    30     1    14    1
    31     1    13    1
    32    17    14    1
    33    14    16    1
    34     9    10   ar
    35     9    13   ar
    36    49    46    1
    37    10    11   ar
    38    13     7   ar
    39    41    38    1
    40    39    38    1
    41    11    38    1
    42    11    12   ar
    43     7    46    1
    44     7    12   ar
    45    46    47    1
    46    46    48    1
    47    38    40    1
    48    12    42    1
    49    44    42    1
    50    42    45    1
    51    42    43    1
