@<TRIPOS>MOLECULE
1,2,3,4,5
 10 10 0 0 0
SMALL
GASTEIGER

@<TRIPOS>ATOM
      1 C           2.1015    2.5195    0.7852 C.2     1  UNL1       -0.0837
      2 C           1.8399    3.5819    1.6645 C.2     1  UNL1       -0.0837
      3 C           0.4472    3.8039    1.6846 C.3     1  UNL1       -0.0127
      4 C          -0.1523    2.8817    0.8005 C.3     1  UNL1       -0.0235
      5 C           0.8749    2.0881    0.2436 C.3     1  UNL1       -0.0127
      6 H           3.0790    2.1490    0.5051 H       1  UNL1        0.0572
      7 H           2.5869    4.1993    2.1460 H       1  UNL1        0.0572
      8 H          -0.0532    4.6389    2.1573 H       1  UNL1        0.0352
      9 H          -1.1853    2.8892    0.4832 H       1  UNL1        0.0315
     10 H           0.7549    1.3403   -0.5307 H       1  UNL1        0.0352
@<TRIPOS>BOND
     1    10     5    1
     2     5     1    1
     3     5     4    1
     4     9     4    1
     5     6     1    1
     6     1     2    2
     7     4     3    1
     8     2     3    1
     9     2     7    1
    10     3     8    1
