@<TRIPOS>MOLECULE
1,2,3,4,5
 10 10 0 0 0
SMALL
GASTEIGER

@<TRIPOS>ATOM
      1 C           2.2677    2.1822    4.3608 C.2     1  UNL1       -0.0654
      2 C           1.1457    3.0290    4.4737 C.2     1  UNL1       -0.0763
      3 C           0.0170    2.2279    4.7228 C.3     1  UNL1        0.0054
      4 C           0.4522    0.8811    4.8084 C.2     1  UNL1       -0.0763
      5 C           1.8434    0.8640    4.6035 C.2     1  UNL1       -0.0654
      6 H           3.2973    2.4994    4.2530 H       1  UNL1        0.0615
      7 H           1.1670    4.1108    4.4895 H       1  UNL1        0.0578
      8 H          -0.9631    2.5894    4.9950 H       1  UNL1        0.0394
      9 H          -0.1492    0.0394    5.1253 H       1  UNL1        0.0578
     10 H           2.4848   -0.0032    4.6850 H       1  UNL1        0.0615
@<TRIPOS>BOND
     1     6     1    1
     2     1     2    2
     3     1     5    1
     4     2     7    1
     5     2     3    1
     6     5    10    1
     7     5     4    2
     8     3     4    1
     9     3     8    1
    10     4     9    1
