@<TRIPOS>MOLECULE
2,4,6,8,10
 22 22 0 0 0
SMALL
GASTEIGER

@<TRIPOS>ATOM
      1 SI          6.1887    6.4329    1.4519 Si      1  UNL1        0.0000
      2 C           4.5482    4.7810    3.2694 C.2     1  UNL1        0.0000
      3 H           3.8191    5.5605    3.4541 H       1  UNL1        0.0000
      4 C           4.4402    3.4448    3.6949 C.2     1  UNL1        0.0000
      5 H           3.6277    3.0271    4.2755 H       1  UNL1        0.0000
      6 C           5.4777    2.7065    3.0860 C.2     1  UNL1        0.0000
      7 H           5.5836    1.6298    3.1327 H       1  UNL1        0.0000
      8 C           6.2347    3.5944    2.2947 C.2     1  UNL1        0.0000
      9 H           7.0198    3.3247    1.5980 H       1  UNL1        0.0000
     10 C           5.6677    4.8969    2.4049 C.3     1  UNL1        0.0000
     11 C           6.4989    7.8710    2.6752 C.3     1  UNL1        0.0000
     12 H           7.3877    7.6885    3.2739 H       1  UNL1        0.0000
     13 H           5.6572    8.0143    3.3487 H       1  UNL1        0.0000
     14 H           6.6503    8.8063    2.1447 H       1  UNL1        0.0000
     15 C           4.7525    6.9364    0.2922 C.3     1  UNL1        0.0000
     16 H           5.0159    7.8162   -0.2848 H       1  UNL1        0.0000
     17 H           3.8487    7.1663    0.8468 H       1  UNL1        0.0000
     18 H           4.5128    6.1431   -0.4079 H       1  UNL1        0.0000
     19 C           7.7417    6.0634    0.4079 C.3     1  UNL1        0.0000
     20 H           8.5716    5.7562    1.0367 H       1  UNL1        0.0000
     21 H           8.0525    6.9465   -0.1408 H       1  UNL1        0.0000
     22 H           7.5565    5.2774   -0.3181 H       1  UNL1        0.0000
@<TRIPOS>BOND
     1    18    15    1
     2    22    19    1
     3    16    15    1
     4    21    19    1
     5    15    17    1
     6    15     1    1
     7    19    20    1
     8    19     1    1
     9     1    10    1
    10     1    11    1
    11     9     8    1
    12    14    11    1
    13     8    10    1
    14     8     6    2
    15    10     2    1
    16    11    12    1
    17    11    13    1
    18     6     7    1
    19     6     4    1
    20     2     3    1
    21     2     4    2
    22     4     5    1
