@<TRIPOS>MOLECULE
2,3,5,7,9
 22 22 0 0 0
SMALL
GASTEIGER

@<TRIPOS>ATOM
      1 SI         14.3435   16.0111   10.8462 Si      1  UNL1        0.0000
      2 C          14.1469   15.3978    9.0719 C.3     1  UNL1        0.0000
      3 C          14.9330   14.4156    8.4345 C.2     1  UNL1        0.0000
      4 H          15.7287   13.8506    8.9033 H       1  UNL1        0.0000
      5 C          14.6432   14.4229    7.0520 C.2     1  UNL1        0.0000
      6 H          15.1621   13.8524    6.2925 H       1  UNL1        0.0000
      7 C          13.7205   15.4610    6.8100 C.2     1  UNL1        0.0000
      8 H          13.3661   15.7862    5.8390 H       1  UNL1        0.0000
      9 C          13.3899   16.0382    8.0453 C.2     1  UNL1        0.0000
     10 H          12.7568   16.9045    8.1889 H       1  UNL1        0.0000
     11 C          16.1416   16.6581   10.9835 C.3     1  UNL1        0.0000
     12 H          16.3384   17.4431   10.2606 H       1  UNL1        0.0000
     13 H          16.8687   15.8700   10.8154 H       1  UNL1        0.0000
     14 H          16.3251   17.0671   11.9712 H       1  UNL1        0.0000
     15 C          14.1211   14.5975   12.1134 C.3     1  UNL1        0.0000
     16 H          14.8641   13.8155   11.9808 H       1  UNL1        0.0000
     17 H          13.1359   14.1490   12.0266 H       1  UNL1        0.0000
     18 H          14.2247   14.9729   13.1268 H       1  UNL1        0.0000
     19 C          13.1329   17.4426   11.1897 C.3     1  UNL1        0.0000
     20 H          13.3065   18.2810   10.5214 H       1  UNL1        0.0000
     21 H          13.2462   17.8060   12.2061 H       1  UNL1        0.0000
     22 H          12.1053   17.1172   11.0652 H       1  UNL1        0.0000
@<TRIPOS>BOND
     1     8     7    1
     2     6     5    1
     3     7     5    1
     4     7     9    2
     5     5     3    2
     6     9    10    1
     7     9     2    1
     8     3     4    1
     9     3     2    1
    10     2     1    1
    11    12    11    1
    12    20    19    1
    13    13    11    1
    14     1    11    1
    15     1    19    1
    16     1    15    1
    17    11    14    1
    18    22    19    1
    19    19    21    1
    20    16    15    1
    21    17    15    1
    22    15    18    1
