@<TRIPOS>MOLECULE
2,3,5,7,9
 22 22 0 0 0
SMALL
GASTEIGER

@<TRIPOS>ATOM
      1 SI         12.0682   11.0438    5.9088 Si      1  UNL1        0.0000
      2 C          12.5209   11.5795    7.6533 C.3     1  UNL1        0.0000
      3 C          13.8297   11.7084    8.1846 C.3     1  UNL1        0.0000
      4 H          14.7417   11.5222    7.6320 H       1  UNL1        0.0000
      5 C          13.7423   11.9139    9.5742 C.2     1  UNL1        0.0000
      6 H          14.5706   11.9505   10.2684 H       1  UNL1        0.0000
      7 C          12.3855   11.9273    9.9223 C.2     1  UNL1        0.0000
      8 H          11.9854   11.9918   10.9258 H       1  UNL1        0.0000
      9 C          11.6274   11.7386    8.7463 C.3     1  UNL1        0.0000
     10 H          10.5509   11.6147    8.7045 H       1  UNL1        0.0000
     11 C          13.1010   12.0535    4.6480 C.3     1  UNL1        0.0000
     12 H          14.1298   11.7039    4.6227 H       1  UNL1        0.0000
     13 H          13.1162   13.1109    4.9039 H       1  UNL1        0.0000
     14 H          12.7070   11.9558    3.6406 H       1  UNL1        0.0000
     15 C          12.5359    9.2008    5.7021 C.3     1  UNL1        0.0000
     16 H          13.5963    9.0354    5.8639 H       1  UNL1        0.0000
     17 H          12.2983    8.8543    4.7019 H       1  UNL1        0.0000
     18 H          11.9972    8.5730    6.4045 H       1  UNL1        0.0000
     19 C          10.1861   11.2341    5.6405 C.3     1  UNL1        0.0000
     20 H           9.6448   10.4286    6.1285 H       1  UNL1        0.0000
     21 H           9.9279   11.2041    4.5862 H       1  UNL1        0.0000
     22 H           9.8184   12.1723    6.0466 H       1  UNL1        0.0000
@<TRIPOS>BOND
     1    14    11    1
     2    21    19    1
     3    12    11    1
     4    11    13    1
     5    11     1    1
     6    17    15    1
     7    19     1    1
     8    19    22    1
     9    19    20    1
    10    15    16    1
    11    15     1    1
    12    15    18    1
    13     1     2    1
    14     4     3    1
    15     2     3    1
    16     2     9    1
    17     3     5    1
    18    10     9    1
    19     9     7    1
    20     5     7    2
    21     5     6    1
    22     7     8    1
