@<TRIPOS>MOLECULE
2,3,5,7,9
 22 22 0 0 0
SMALL
GASTEIGER

@<TRIPOS>ATOM
      1 SI         -2.5977    1.1888   17.7086 Si      1  UNL1        0.0000
      2 C          -1.1324    2.3430   17.4403 C.3     1  UNL1        0.0000
      3 C          -0.9789    3.6793   17.9206 C.2     1  UNL1        0.0000
      4 H          -1.7249    4.2218   18.4892 H       1  UNL1        0.0000
      5 C           0.3387    4.0884   17.6924 C.2     1  UNL1        0.0000
      6 H           0.7958    5.0008   18.0520 H       1  UNL1        0.0000
      7 C           1.0113    3.0432   17.0224 C.2     1  UNL1        0.0000
      8 H           2.0680    3.0210   16.7865 H       1  UNL1        0.0000
      9 C           0.1195    1.9629   16.9038 C.2     1  UNL1        0.0000
     10 H           0.3647    0.9727   16.5393 H       1  UNL1        0.0000
     11 C          -1.9552   -0.2617   18.7836 C.3     1  UNL1        0.0000
     12 H          -1.5669    0.0886   19.7344 H       1  UNL1        0.0000
     13 H          -1.1613   -0.8111   18.2877 H       1  UNL1        0.0000
     14 H          -2.7561   -0.9619   18.9943 H       1  UNL1        0.0000
     15 C          -3.2131    0.4725   16.0473 C.3     1  UNL1        0.0000
     16 H          -2.4222   -0.0749   15.5394 H       1  UNL1        0.0000
     17 H          -3.5455    1.2718   15.3899 H       1  UNL1        0.0000
     18 H          -4.0456   -0.2089   16.1931 H       1  UNL1        0.0000
     19 C          -3.9953    2.0846   18.6497 C.3     1  UNL1        0.0000
     20 H          -3.6564    2.4439   19.6169 H       1  UNL1        0.0000
     21 H          -4.8288    1.4122   18.8256 H       1  UNL1        0.0000
     22 H          -4.3655    2.9336   18.0842 H       1  UNL1        0.0000
@<TRIPOS>BOND
     1    17    15    1
     2    16    15    1
     3    15    18    1
     4    15     1    1
     5    10     9    1
     6     8     7    1
     7     9     7    2
     8     9     2    1
     9     7     5    1
    10     2     1    1
    11     2     3    1
    12     5     3    2
    13     5     6    1
    14     1    19    1
    15     1    11    1
    16     3     4    1
    17    22    19    1
    18    13    11    1
    19    19    21    1
    20    19    20    1
    21    11    14    1
    22    11    12    1
