@<TRIPOS>MOLECULE
2,3,5,7,9
 22 22 0 0 0
SMALL
GASTEIGER

@<TRIPOS>ATOM
      1 SI          0.4279   20.2345    9.7139 Si      1  UNL1        0.0000
      2 C           0.9866   18.4428    9.5864 C.3     1  UNL1        0.0000
      3 C           0.1661   17.2931    9.7052 C.3     1  UNL1        0.0000
      4 H          -0.9006   17.3110    9.8879 H       1  UNL1        0.0000
      5 C           0.9163   16.1559    9.3451 C.2     1  UNL1        0.0000
      6 H           0.5367   15.1493    9.2324 H       1  UNL1        0.0000
      7 C           2.2085   16.5822    9.0105 C.2     1  UNL1        0.0000
      8 H           3.0030   15.9615    8.6171 H       1  UNL1        0.0000
      9 C           2.2647   17.9837    9.1736 C.3     1  UNL1        0.0000
     10 H           3.1078   18.6137    8.9133 H       1  UNL1        0.0000
     11 C           1.9512   21.3872    9.6912 C.3     1  UNL1        0.0000
     12 H           1.7032   22.3842   10.0425 H       1  UNL1        0.0000
     13 H           2.3396   21.4886    8.6818 H       1  UNL1        0.0000
     14 H           2.7533   21.0043   10.3160 H       1  UNL1        0.0000
     15 C          -0.6480   20.4441   11.2870 C.3     1  UNL1        0.0000
     16 H          -0.7815   21.4912   11.5426 H       1  UNL1        0.0000
     17 H          -0.2038   19.9410   12.1436 H       1  UNL1        0.0000
     18 H          -1.6394   20.0255   11.1346 H       1  UNL1        0.0000
     19 C          -0.6679   20.6308    8.1979 C.3     1  UNL1        0.0000
     20 H          -1.0203   21.6561    8.2372 H       1  UNL1        0.0000
     21 H          -1.5392   19.9854    8.1518 H       1  UNL1        0.0000
     22 H          -0.1207   20.5067    7.2689 H       1  UNL1        0.0000
@<TRIPOS>BOND
     1    22    19    1
     2    21    19    1
     3    19    20    1
     4    19     1    1
     5     8     7    1
     6    13    11    1
     7    10     9    1
     8     7     9    1
     9     7     5    2
    10     9     2    1
    11     6     5    1
    12     5     3    1
    13     2     3    1
    14     2     1    1
    15    11     1    1
    16    11    12    1
    17    11    14    1
    18     3     4    1
    19     1    15    1
    20    18    15    1
    21    15    16    1
    22    15    17    1
