@<TRIPOS>MOLECULE
2,3,5,7,9
 22 22 0 0 0
SMALL
GASTEIGER

@<TRIPOS>ATOM
      1 SI         -1.9082    4.6641   12.1530 Si      1  UNL1        0.0000
      2 C          -0.8923    5.0526   13.6911 C.3     1  UNL1        0.0000
      3 C          -1.2517    5.9435   14.7376 C.2     1  UNL1        0.0000
      4 H          -2.1883    6.4829   14.7993 H       1  UNL1        0.0000
      5 C          -0.1546    6.1154   15.5922 C.2     1  UNL1        0.0000
      6 H          -0.1030    6.8103   16.4205 H       1  UNL1        0.0000
      7 C           0.9075    5.3391   15.0917 C.2     1  UNL1        0.0000
      8 H           1.9238    5.3435   15.4634 H       1  UNL1        0.0000
      9 C           0.4566    4.6737   13.9364 C.2     1  UNL1        0.0000
     10 H           1.0742    4.1063   13.2515 H       1  UNL1        0.0000
     11 C          -3.5066    3.6863   12.5228 C.3     1  UNL1        0.0000
     12 H          -4.2607    4.3244   12.9747 H       1  UNL1        0.0000
     13 H          -3.3105    2.8793   13.2246 H       1  UNL1        0.0000
     14 H          -3.9305    3.2577   11.6191 H       1  UNL1        0.0000
     15 C          -0.8058    3.6809   10.9340 C.3     1  UNL1        0.0000
     16 H           0.0870    4.2390   10.6682 H       1  UNL1        0.0000
     17 H          -1.3452    3.4777   10.0147 H       1  UNL1        0.0000
     18 H          -0.4939    2.7262   11.3482 H       1  UNL1        0.0000
     19 C          -2.3775    6.3345   11.3451 C.3     1  UNL1        0.0000
     20 H          -3.0062    6.9311   11.9983 H       1  UNL1        0.0000
     21 H          -2.9249    6.1712   10.4230 H       1  UNL1        0.0000
     22 H          -1.4987    6.9251   11.1061 H       1  UNL1        0.0000
@<TRIPOS>BOND
     1    17    15    1
     2    21    19    1
     3    16    15    1
     4    15    18    1
     5    15     1    1
     6    22    19    1
     7    19    20    1
     8    19     1    1
     9    14    11    1
    10     1    11    1
    11     1     2    1
    12    11    12    1
    13    11    13    1
    14    10     9    1
    15     2     9    1
    16     2     3    1
    17     9     7    2
    18     3     4    1
    19     3     5    2
    20     7     8    1
    21     7     5    1
    22     5     6    1
