@<TRIPOS>MOLECULE
2,3,5,7,9
 22 22 0 0 0
SMALL
GASTEIGER

@<TRIPOS>ATOM
      1 SI          2.3136   13.7167   12.6052 Si      1  UNL1        0.0000
      2 C           1.4951   15.4147   12.7293 C.3     1  UNL1        0.0000
      3 C           1.8941   16.4700   13.6030 C.2     1  UNL1        0.0000
      4 H           2.7724   16.4541   14.2353 H       1  UNL1        0.0000
      5 C           0.8872   17.4477   13.6246 C.2     1  UNL1        0.0000
      6 H           0.8689   18.3301   14.2533 H       1  UNL1        0.0000
      7 C          -0.1257   17.0439   12.7316 C.2     1  UNL1        0.0000
      8 H          -1.0800   17.5367   12.5980 H       1  UNL1        0.0000
      9 C           0.2318   15.7779   12.2162 C.2     1  UNL1        0.0000
     10 H          -0.4191   15.1314   11.6414 H       1  UNL1        0.0000
     11 C           2.6161   13.2074   10.7878 C.3     1  UNL1        0.0000
     12 H           1.6882   13.1338   10.2269 H       1  UNL1        0.0000
     13 H           3.0996   12.2366   10.7400 H       1  UNL1        0.0000
     14 H           3.2618   13.9219   10.2859 H       1  UNL1        0.0000
     15 C           3.9359   13.6978   13.6045 C.3     1  UNL1        0.0000
     16 H           4.4090   12.7226   13.5500 H       1  UNL1        0.0000
     17 H           3.7614   13.9178   14.6537 H       1  UNL1        0.0000
     18 H           4.6375   14.4295   13.2174 H       1  UNL1        0.0000
     19 C           1.0732   12.4778   13.3765 C.3     1  UNL1        0.0000
     20 H           0.1372   12.4468   12.8277 H       1  UNL1        0.0000
     21 H           0.8406   12.7357   14.4047 H       1  UNL1        0.0000
     22 H           1.4866   11.4750   13.3747 H       1  UNL1        0.0000
@<TRIPOS>BOND
     1    12    11    1
     2    14    11    1
     3    13    11    1
     4    11     1    1
     5    10     9    1
     6     9     2    1
     7     9     7    2
     8     8     7    1
     9     1     2    1
    10     1    19    1
    11     1    15    1
    12     2     3    1
    13     7     5    1
    14    20    19    1
    15    18    15    1
    16    22    19    1
    17    19    21    1
    18    16    15    1
    19     3     5    2
    20     3     4    1
    21    15    17    1
    22     5     6    1
