@<TRIPOS>MOLECULE
1,2,3,4,5
 25 25 0 0 0
SMALL
GASTEIGER

@<TRIPOS>ATOM
      1 C           2.8512    0.0306    1.2477 C.2     1  UNL1       -0.0477
      2 C           3.9105   -0.0865    2.2056 C.2     1  UNL1       -0.0584
      3 C           4.7467    1.0694    2.0669 C.3     1  UNL1        0.0231
      4 C           4.2186    1.8745    1.0036 C.2     1  UNL1       -0.0584
      5 C           3.0558    1.2430    0.5058 C.2     1  UNL1       -0.0477
      6 C           1.9060   -1.0793    0.8851 C.3     1  UNL1       -0.0395
      7 C           4.2026   -1.2936    3.0476 C.3     1  UNL1       -0.0424
      8 C           6.0574    1.2949    2.7610 C.3     1  UNL1       -0.0510
      9 C           4.9168    3.0792    0.4458 C.3     1  UNL1       -0.0424
     10 C           2.2795    1.6226   -0.7211 C.3     1  UNL1       -0.0395
     11 H           2.4461   -1.8584    0.3433 H       1  UNL1        0.0278
     12 H           1.4683   -1.5255    1.7766 H       1  UNL1        0.0278
     13 H           1.1008   -0.7204    0.2493 H       1  UNL1        0.0278
     14 H           4.8772   -1.9676    2.5164 H       1  UNL1        0.0275
     15 H           4.6740   -1.0072    3.9863 H       1  UNL1        0.0275
     16 H           3.2861   -1.8329    3.2779 H       1  UNL1        0.0275
     17 H           6.8684    0.8284    2.1970 H       1  UNL1        0.0242
     18 H           6.2691    2.3592    2.8510 H       1  UNL1        0.0242
     19 H           6.0443    0.8620    3.7605 H       1  UNL1        0.0242
     20 H           5.8905    2.7899    0.0475 H       1  UNL1        0.0275
     21 H           5.0790    3.8302    1.2218 H       1  UNL1        0.0275
     22 H           4.3424    3.5364   -0.3572 H       1  UNL1        0.0275
     23 H           2.5411    0.9533   -1.5432 H       1  UNL1        0.0278
     24 H           2.5002    2.6414   -1.0310 H       1  UNL1        0.0278
     25 H           1.2051    1.5451   -0.5555 H       1  UNL1        0.0278
@<TRIPOS>BOND
     1    23    10    1
     2    24    10    1
     3    10    25    1
     4    10     5    1
     5    22     9    1
     6    20     9    1
     7    13     6    1
     8    11     6    1
     9     9     4    1
    10     9    21    1
    11     5     4    2
    12     5     1    1
    13     6     1    1
    14     6    12    1
    15     4     3    1
    16     1     2    2
    17     3     2    1
    18     3     8    1
    19    17     8    1
    20     2     7    1
    21    14     7    1
    22     8    18    1
    23     8    19    1
    24     7    16    1
    25     7    15    1
