@<TRIPOS>MOLECULE
1,2,3,4,5
 13 13 0 0 0
SMALL
GASTEIGER

@<TRIPOS>ATOM
      1 C           2.8180    7.0190    3.9152 C.3     1  UNL1       -0.0013
      2 C           3.6042    6.8061    2.7549 C.3     1  UNL1       -0.0204
      3 C           3.4279    5.4666    2.3428 C.3     1  UNL1       -0.0124
      4 C           2.5352    4.8484    3.2426 C.2     1  UNL1       -0.0834
      5 C           2.1450    5.8087    4.1969 C.2     1  UNL1       -0.0806
      6 C           2.6611    8.3298    4.6333 C.3     1  UNL1       -0.0550
      7 H           4.1405    7.5792    2.2178 H       1  UNL1        0.0318
      8 H           3.8057    5.0248    1.4302 H       1  UNL1        0.0352
      9 H           2.1200    3.8549    3.1431 H       1  UNL1        0.0572
     10 H           1.3350    5.6880    4.9046 H       1  UNL1        0.0575
     11 H           2.1339    8.1970    5.5781 H       1  UNL1        0.0238
     12 H           3.6417    8.7745    4.8297 H       1  UNL1        0.0238
     13 H           2.0915    9.0357    4.0247 H       1  UNL1        0.0238
@<TRIPOS>BOND
     1     8     3    1
     2     7     2    1
     3     3     2    1
     4     3     4    1
     5     2     1    1
     6     9     4    1
     7     4     5    2
     8     1     5    1
     9     1     6    1
    10    13     6    1
    11     5    10    1
    12     6    12    1
    13     6    11    1
