@<TRIPOS>MOLECULE
1,2,3,4,5
 13 13 0 0 0
SMALL
GASTEIGER

@<TRIPOS>ATOM
      1 C           3.8478    4.1207    6.5146 C.3     1  UNL1       -0.0013
      2 C           5.2600    4.1766    6.6258 C.3     1  UNL1       -0.0204
      3 C           5.6246    5.5032    6.9459 C.3     1  UNL1       -0.0124
      4 C           4.4441    6.2698    7.0340 C.2     1  UNL1       -0.0834
      5 C           3.3513    5.4149    6.7889 C.2     1  UNL1       -0.0806
      6 C           3.0426    2.8781    6.2578 C.3     1  UNL1       -0.0550
      7 H           5.9198    3.3179    6.5937 H       1  UNL1        0.0318
      8 H           6.6172    5.8476    7.2044 H       1  UNL1        0.0352
      9 H           4.3783    7.2981    7.3619 H       1  UNL1        0.0572
     10 H           2.3132    5.6678    6.9624 H       1  UNL1        0.0575
     11 H           1.9983    3.1226    6.0630 H       1  UNL1        0.0238
     12 H           3.4489    2.3335    5.3998 H       1  UNL1        0.0238
     13 H           3.0782    2.2115    7.1223 H       1  UNL1        0.0238
@<TRIPOS>BOND
     1    12     6    1
     2    11     6    1
     3     6     1    1
     4     6    13    1
     5     1     2    1
     6     1     5    1
     7     7     2    1
     8     2     3    1
     9     5    10    1
    10     5     4    2
    11     3     4    1
    12     3     8    1
    13     4     9    1
