@<TRIPOS>MOLECULE
1,2,3,4,5
 10 10 0 0 0
SMALL
GASTEIGER

@<TRIPOS>ATOM
      1 C           0.9271    8.5861    5.3676 C.2     1  UNL1       -0.0654
      2 C           0.9894    8.4736    6.7592 C.2     1  UNL1       -0.0763
      3 C           2.0584    9.2734    7.2277 C.3     1  UNL1        0.0054
      4 C           2.6718    9.8725    6.0868 C.2     1  UNL1       -0.0763
      5 C           1.9596    9.4428    4.9475 C.2     1  UNL1       -0.0654
      6 H           0.2548    8.0472    4.7201 H       1  UNL1        0.0615
      7 H           0.3891    7.8123    7.3661 H       1  UNL1        0.0578
      8 H           2.4826    9.2193    8.2219 H       1  UNL1        0.0394
      9 H           3.6294   10.3734    6.0686 H       1  UNL1        0.0578
     10 H           2.2328    9.6411    3.9220 H       1  UNL1        0.0615
@<TRIPOS>BOND
     1    10     5    1
     2     6     1    1
     3     5     1    1
     4     5     4    2
     5     1     2    2
     6     9     4    1
     7     4     3    1
     8     2     3    1
     9     2     7    1
    10     3     8    1
