@<TRIPOS>MOLECULE
1,2,3,4,5
 25 25 0 0 0
SMALL
GASTEIGER

@<TRIPOS>ATOM
      1 C          -3.0601    9.7210    3.6273 C.2     1  UNL1       -0.0477
      2 C          -3.7344    9.4865    2.4137 C.2     1  UNL1       -0.0477
      3 C          -4.9238    8.7794    2.6876 C.2     1  UNL1       -0.0584
      4 C          -4.9758    8.5157    4.0888 C.3     1  UNL1        0.0231
      5 C          -3.8162    9.1504    4.6787 C.2     1  UNL1       -0.0584
      6 C          -1.7206   10.3671    3.8166 C.3     1  UNL1       -0.0395
      7 C          -3.2444    9.8266    1.0373 C.3     1  UNL1       -0.0395
      8 C          -5.8690    8.2234    1.6596 C.3     1  UNL1       -0.0424
      9 C          -5.8533    7.4991    4.7709 C.3     1  UNL1       -0.0510
     10 C          -3.2949    8.8798    6.0637 C.3     1  UNL1       -0.0424
     11 H          -0.9368    9.6092    3.8710 H       1  UNL1        0.0278
     12 H          -1.4753   11.0370    2.9955 H       1  UNL1        0.0278
     13 H          -1.6917   10.9378    4.7440 H       1  UNL1        0.0278
     14 H          -3.0486    8.9132    0.4745 H       1  UNL1        0.0278
     15 H          -3.9760   10.4095    0.4772 H       1  UNL1        0.0278
     16 H          -2.3179   10.3934    1.0814 H       1  UNL1        0.0278
     17 H          -5.6569    7.1677    1.4781 H       1  UNL1        0.0275
     18 H          -6.9055    8.3061    1.9865 H       1  UNL1        0.0275
     19 H          -5.7621    8.7505    0.7143 H       1  UNL1        0.0275
     20 H          -5.2525    6.6500    5.1032 H       1  UNL1        0.0242
     21 H          -6.3715    7.9171    5.6388 H       1  UNL1        0.0242
     22 H          -6.6028    7.1239    4.0776 H       1  UNL1        0.0242
     23 H          -2.4216    8.2268    6.0045 H       1  UNL1        0.0275
     24 H          -2.9858    9.7902    6.5756 H       1  UNL1        0.0275
     25 H          -4.0484    8.3823    6.6667 H       1  UNL1        0.0275
@<TRIPOS>BOND
     1    14     7    1
     2    15     7    1
     3    19     8    1
     4     7    16    1
     5     7     2    1
     6    17     8    1
     7     8    18    1
     8     8     3    1
     9     2     3    2
    10     2     1    1
    11     3     4    1
    12    12     6    1
    13     1     6    1
    14     1     5    2
    15     6    11    1
    16     6    13    1
    17    22     9    1
    18     4     5    1
    19     4     9    1
    20     5    10    1
    21     9    20    1
    22     9    21    1
    23    23    10    1
    24    10    24    1
    25    10    25    1
