@<TRIPOS>MOLECULE
1,2,3,4,5
 25 25 0 0 0
SMALL
GASTEIGER

@<TRIPOS>ATOM
      1 C           0.1335   13.1458    7.8528 C.2     1  UNL1       -0.0584
      2 C           0.9186   12.3047    8.6914 C.3     1  UNL1        0.0231
      3 C           2.2421   12.2681    8.1577 C.2     1  UNL1       -0.0584
      4 C           2.2551   13.0441    6.9711 C.2     1  UNL1       -0.0477
      5 C           0.9602   13.5984    6.7888 C.2     1  UNL1       -0.0477
      6 C          -1.2803   13.5933    8.0907 C.3     1  UNL1       -0.0424
      7 C           0.4806   11.7406   10.0160 C.3     1  UNL1       -0.0510
      8 C           3.4652   11.7755    8.8824 C.3     1  UNL1       -0.0424
      9 C           3.4524   13.3924    6.1327 C.3     1  UNL1       -0.0395
     10 C           0.6126   14.6748    5.8019 C.3     1  UNL1       -0.0395
     11 H          -1.2981   14.6401    8.3999 H       1  UNL1        0.0275
     12 H          -1.8823   13.5002    7.1844 H       1  UNL1        0.0275
     13 H          -1.7503   13.0024    8.8725 H       1  UNL1        0.0275
     14 H           0.5446   12.5043   10.7941 H       1  UNL1        0.0242
     15 H          -0.5508   11.3929    9.9717 H       1  UNL1        0.0242
     16 H           1.1065   10.9023   10.3189 H       1  UNL1        0.0242
     17 H           3.9840   12.6228    9.3359 H       1  UNL1        0.0275
     18 H           3.2034   11.0886    9.6839 H       1  UNL1        0.0275
     19 H           4.1708   11.2768    8.2194 H       1  UNL1        0.0275
     20 H           3.6556   14.4626    6.1914 H       1  UNL1        0.0278
     21 H           4.3392   12.8674    6.4788 H       1  UNL1        0.0278
     22 H           3.2890   13.1450    5.0813 H       1  UNL1        0.0278
     23 H           0.9073   15.6480    6.2011 H       1  UNL1        0.0278
     24 H           1.1322   14.5329    4.8567 H       1  UNL1        0.0278
     25 H          -0.4564   14.7058    5.6076 H       1  UNL1        0.0278
@<TRIPOS>BOND
     1    24    10    1
     2    22     9    1
     3    25    10    1
     4    10    23    1
     5    10     5    1
     6     9    20    1
     7     9    21    1
     8     9     4    1
     9     5     4    1
    10     5     1    2
    11     4     3    2
    12    12     6    1
    13     1     6    1
    14     1     2    1
    15     6    11    1
    16     6    13    1
    17     3     2    1
    18     3     8    1
    19    19     8    1
    20     2     7    1
    21     8    17    1
    22     8    18    1
    23    15     7    1
    24     7    16    1
    25     7    14    1
