@<TRIPOS>MOLECULE
1,2,3,4,5
 10 10 0 0 0
SMALL
GASTEIGER

@<TRIPOS>ATOM
      1 C          -4.5995   12.3228    2.9061 C.2     1  UNL1       -0.0763
      2 C          -4.8382   12.9865    4.1277 C.3     1  UNL1        0.0054
      3 C          -6.2363   13.1835    4.2472 C.2     1  UNL1       -0.0763
      4 C          -6.8509   12.6313    3.1152 C.2     1  UNL1       -0.0654
      5 C          -5.8507   12.0709    2.2952 C.2     1  UNL1       -0.0654
      6 H          -3.6347   12.2059    2.4404 H       1  UNL1        0.0578
      7 H          -4.0820   13.4413    4.7485 H       1  UNL1        0.0394
      8 H          -6.7238   13.7693    5.0086 H       1  UNL1        0.0578
      9 H          -7.8970   12.7073    2.8606 H       1  UNL1        0.0615
     10 H          -6.0035   11.6970    1.2916 H       1  UNL1        0.0615
@<TRIPOS>BOND
     1    10     5    1
     2     5     1    2
     3     5     4    1
     4     6     1    1
     5     9     4    1
     6     1     2    1
     7     4     3    2
     8     2     3    1
     9     2     7    1
    10     3     8    1
