@<TRIPOS>MOLECULE
1,2,3,4,5
 25 25 0 0 0
SMALL
GASTEIGER

@<TRIPOS>ATOM
      1 C           0.9153    0.4276    2.1492 C.2     1  UNL1       -0.0658
      2 C           1.0823    1.3709    1.0974 C.3     1  UNL1        0.0052
      3 C          -0.0198    2.2650    1.1262 C.3     1  UNL1       -0.0053
      4 C          -0.8572    1.8901    2.2094 C.3     1  UNL1        0.0052
      5 C          -0.2861    0.7474    2.8355 C.2     1  UNL1       -0.0658
      6 C           1.7607   -0.8098    2.3104 C.3     1  UNL1       -0.0430
      7 H           2.0180   -1.2122    1.3305 H       1  UNL1        0.0275
      8 H           1.2177   -1.5856    2.8493 H       1  UNL1        0.0275
      9 H           2.6901   -0.6034    2.8448 H       1  UNL1        0.0275
     10 C           2.0950    1.2665   -0.0113 C.3     1  UNL1       -0.0545
     11 H           1.6964    0.6628   -0.8311 H       1  UNL1        0.0239
     12 H           3.0115    0.7945    0.3360 H       1  UNL1        0.0239
     13 H           2.3421    2.2462   -0.4151 H       1  UNL1        0.0239
     14 C          -0.3407    3.2964    0.0807 C.3     1  UNL1       -0.0574
     15 H           0.5656    3.7217   -0.3459 H       1  UNL1        0.0236
     16 H          -0.9379    4.1061    0.4951 H       1  UNL1        0.0236
     17 H          -0.9117    2.8462   -0.7347 H       1  UNL1        0.0236
     18 C          -2.2370    2.4253    2.4832 C.3     1  UNL1       -0.0545
     19 H          -2.3113    3.4787    2.2212 H       1  UNL1        0.0239
     20 H          -2.5005    2.3094    3.5321 H       1  UNL1        0.0239
     21 H          -2.9775    1.8843    1.8877 H       1  UNL1        0.0239
     22 C          -1.0005   -0.0806    3.8724 C.3     1  UNL1       -0.0430
     23 H          -2.0577   -0.1589    3.6167 H       1  UNL1        0.0275
     24 H          -0.9257    0.3595    4.8685 H       1  UNL1        0.0275
     25 H          -0.5976   -1.0919    3.9117 H       1  UNL1        0.0275
@<TRIPOS>BOND
     1    11    10    1
     2    17    14    1
     3    13    10    1
     4    15    14    1
     5    10    12    1
     6    10     2    1
     7    14    16    1
     8    14     3    1
     9     2     3    1
    10     2     1    1
    11     3     4    1
    12     7     6    1
    13    21    18    1
    14     1     6    1
    15     1     5    2
    16     4    18    1
    17     4     5    1
    18    19    18    1
    19     6     9    1
    20     6     8    1
    21    18    20    1
    22     5    22    1
    23    23    22    1
    24    22    25    1
    25    22    24    1
