@<TRIPOS>MOLECULE
1,2,3,4,25
 25 25 0 0 0
SMALL
GASTEIGER

@<TRIPOS>ATOM
      1 C           8.0407   11.9648    3.4490 C.2     1  UNL1       -0.0658
      2 C           8.0699   13.6489    1.8811 C.3     1  UNL1       -0.0053
      3 C           9.1815   13.8299    2.7505 C.3     1  UNL1        0.0052
      4 C           9.1574   12.7933    3.7200 C.2     1  UNL1       -0.0658
      5 C           7.5007   10.8412    4.2901 C.3     1  UNL1       -0.0430
      6 H           6.4223   10.9569    4.4114 H       1  UNL1        0.0275
      7 H           7.9470   10.8419    5.2845 H       1  UNL1        0.0275
      8 H           7.6870    9.8699    3.8259 H       1  UNL1        0.0275
      9 C           6.0155   12.0455    1.8373 C.3     1  UNL1       -0.0545
     10 H           5.8442   12.3405    0.8039 H       1  UNL1        0.0239
     11 H           5.2377   12.5105    2.4508 H       1  UNL1        0.0239
     12 H           5.9067   10.9655    1.9136 H       1  UNL1        0.0239
     13 C           7.5685   14.6545    0.8832 C.3     1  UNL1       -0.0574
     14 H           8.3913   15.1926    0.4152 H       1  UNL1        0.0236
     15 H           6.9301   15.3868    1.3852 H       1  UNL1        0.0236
     16 H           6.9799   14.1772    0.1016 H       1  UNL1        0.0236
     17 C          10.0593   15.0473    2.8159 C.3     1  UNL1       -0.0545
     18 H          10.1428   15.5252    1.8418 H       1  UNL1        0.0239
     19 H          11.0576   14.7920    3.1654 H       1  UNL1        0.0239
     20 H           9.6312   15.7768    3.5103 H       1  UNL1        0.0239
     21 C          10.0684   12.7496    4.9157 C.3     1  UNL1       -0.0430
     22 H          11.0596   12.3755    4.6492 H       1  UNL1        0.0275
     23 H           9.6581   12.1160    5.7020 H       1  UNL1        0.0275
     24 H          10.1851   13.7537    5.3270 H       1  UNL1        0.0275
     25 C           7.3707   12.4871    2.3119 C.3     1  UNL1        0.0052
@<TRIPOS>BOND
     1    16    13    1
     2    14    13    1
     3    10     9    1
     4    13    15    1
     5    13     2    1
     6     9    12    1
     7     9    25    1
     8     9    11    1
     9    18    17    1
    10     2    25    1
    11     2     3    1
    12    25     1    1
    13     3    17    1
    14     3     4    1
    15    17    19    1
    16    17    20    1
    17     1     4    2
    18     1     5    1
    19     4    21    1
    20     8     5    1
    21     5     6    1
    22     5     7    1
    23    22    21    1
    24    21    24    1
    25    21    23    1
