@<TRIPOS>MOLECULE
1,2,3,4,5
 25 25 0 0 0
SMALL
GASTEIGER

@<TRIPOS>ATOM
      1 C           0.8932    0.3528    2.1447 C.2     1  UNL1       -0.0658
      2 C           1.0941    1.3240    1.1257 C.3     1  UNL1        0.0052
      3 C           0.0174    2.2498    1.1805 C.3     1  UNL1       -0.0053
      4 C          -0.8383    1.8600    2.2459 C.3     1  UNL1        0.0052
      5 C          -0.3023    0.6820    2.8351 C.2     1  UNL1       -0.0658
      6 C           1.7555   -0.8710    2.3249 C.3     1  UNL1       -0.0430
      7 H           2.0272   -1.2830    1.3521 H       1  UNL1        0.0275
      8 H           1.2227   -1.6498    2.8708 H       1  UNL1        0.0275
      9 H           2.6779   -0.6346    2.8638 H       1  UNL1        0.0275
     10 C           2.1296    1.2434    0.0354 C.3     1  UNL1       -0.0545
     11 H           1.7384    0.6804   -0.8174 H       1  UNL1        0.0239
     12 H           3.0291    0.7387    0.3852 H       1  UNL1        0.0239
     13 H           2.4039    2.2350   -0.3223 H       1  UNL1        0.0239
     14 C          -0.2668    3.3361    0.1791 C.3     1  UNL1       -0.0574
     15 H           0.6556    3.7496   -0.2270 H       1  UNL1        0.0236
     16 H          -0.8385    4.1457    0.6310 H       1  UNL1        0.0236
     17 H          -0.8508    2.9410   -0.6564 H       1  UNL1        0.0236
     18 C          -2.1892    2.4536    2.5456 C.3     1  UNL1       -0.0545
     19 H          -2.1760    3.5386    2.4412 H       1  UNL1        0.0239
     20 H          -2.5068    2.2047    3.5564 H       1  UNL1        0.0239
     21 H          -2.9381    2.0639    1.8496 H       1  UNL1        0.0239
     22 C          -1.0074   -0.1262    3.8947 C.3     1  UNL1       -0.0430
     23 H          -2.0704   -0.2018    3.6596 H       1  UNL1        0.0275
     24 H          -0.9085    0.3343    4.8818 H       1  UNL1        0.0275
     25 H          -0.6116   -1.1406    3.9423 H       1  UNL1        0.0275
@<TRIPOS>BOND
     1    11    10    1
     2    17    14    1
     3    13    10    1
     4    15    14    1
     5    10    12    1
     6    10     2    1
     7    14    16    1
     8    14     3    1
     9     2     3    1
    10     2     1    1
    11     3     4    1
    12     7     6    1
    13    21    18    1
    14     1     6    1
    15     1     5    2
    16     4    18    1
    17     4     5    1
    18     6     9    1
    19     6     8    1
    20    19    18    1
    21    18    20    1
    22     5    22    1
    23    23    22    1
    24    22    25    1
    25    22    24    1
