@<TRIPOS>MOLECULE
1,2,3,4,5
 10 10 0 0 0
SMALL
GASTEIGER

@<TRIPOS>ATOM
      1 C           2.6518   -2.8204    0.4359 C.2     1  UNL1       -0.0763
      2 C           1.8718   -1.6658    0.2427 C.3     1  UNL1        0.0054
      3 C           0.7197   -2.0297   -0.4837 C.2     1  UNL1       -0.0763
      4 C           0.7834   -3.4204   -0.7280 C.2     1  UNL1       -0.0654
      5 C           1.9849   -3.9076   -0.1722 C.2     1  UNL1       -0.0654
      6 H           3.5308   -2.8844    1.0659 H       1  UNL1        0.0578
      7 H           2.0746   -0.6849    0.6546 H       1  UNL1        0.0394
      8 H          -0.1152   -1.3768   -0.7127 H       1  UNL1        0.0578
      9 H          -0.0117   -4.0332   -1.1357 H       1  UNL1        0.0615
     10 H           2.2638   -4.9520   -0.1016 H       1  UNL1        0.0615
@<TRIPOS>BOND
     1     9     4    1
     2     4     3    2
     3     4     5    1
     4     8     3    1
     5     3     2    1
     6     5    10    1
     7     5     1    2
     8     2     1    1
     9     2     7    1
    10     1     6    1
