@<TRIPOS>MOLECULE
1,2,3,4,5
 10 10 0 0 0
SMALL
GASTEIGER

@<TRIPOS>ATOM
      1 C           5.1450   -2.3265   -1.4549 C.2     1  UNL1       -0.0837
      2 C           5.0317   -1.8322   -2.7677 C.3     1  UNL1       -0.0127
      3 C           4.5687   -2.8797   -3.5936 C.3     1  UNL1       -0.0235
      4 C           4.4236   -4.0370   -2.7853 C.3     1  UNL1       -0.0127
      5 C           4.7917   -3.6921   -1.4713 C.2     1  UNL1       -0.0837
      6 H           5.5545   -1.7819   -0.6118 H       1  UNL1        0.0572
      7 H           5.3391   -0.8484   -3.0997 H       1  UNL1        0.0352
      8 H           4.5394   -2.8515   -4.6737 H       1  UNL1        0.0315
      9 H           4.2348   -5.0418   -3.1420 H       1  UNL1        0.0352
     10 H           4.9071   -4.3877   -0.6501 H       1  UNL1        0.0572
@<TRIPOS>BOND
     1     8     3    1
     2     3     4    1
     3     3     2    1
     4     9     4    1
     5     7     2    1
     6     4     5    1
     7     2     1    1
     8     5     1    2
     9     5    10    1
    10     1     6    1
