@<TRIPOS>MOLECULE
1,2,3,4,5
 10 10 0 0 0
SMALL
GASTEIGER

@<TRIPOS>ATOM
      1 C           1.0954    0.6061   15.0803 C.3     1  UNL1        0.0054
      2 C           1.5384    1.0941   13.8265 C.2     1  UNL1       -0.0763
      3 C           0.7589    2.2262   13.5026 C.2     1  UNL1       -0.0654
      4 C          -0.1638    2.4345   14.5446 C.2     1  UNL1       -0.0654
      5 C           0.0499    1.4456   15.5236 C.2     1  UNL1       -0.0763
      6 H           1.5813   -0.1671   15.6635 H       1  UNL1        0.0394
      7 H           2.4192    0.7604   13.2935 H       1  UNL1        0.0578
      8 H           0.9040    2.8784   12.6509 H       1  UNL1        0.0615
      9 H          -0.8508    3.2680   14.6217 H       1  UNL1        0.0615
     10 H          -0.4040    1.4320   16.5067 H       1  UNL1        0.0578
@<TRIPOS>BOND
     1     8     3    1
     2     7     2    1
     3     3     2    2
     4     3     4    1
     5     2     1    1
     6     4     9    1
     7     4     5    2
     8     1     5    1
     9     1     6    1
    10     5    10    1
