@<TRIPOS>MOLECULE
1,2,3,4,5
 10 10 0 0 0
SMALL
GASTEIGER

@<TRIPOS>ATOM
      1 C          -2.4467   -1.8009   13.5878 C.2     1  UNL1       -0.0654
      2 C          -1.5634   -2.0307   14.6668 C.2     1  UNL1       -0.0654
      3 C          -2.6496   -0.0614   15.0552 C.3     1  UNL1        0.0054
      4 C          -1.6880   -0.9629   15.5700 C.2     1  UNL1       -0.0763
      5 C          -3.1349   -0.5969   13.8420 C.2     1  UNL1       -0.0763
      6 H          -2.6931   -2.5257   12.8228 H       1  UNL1        0.0615
      7 H          -1.0049   -2.9427   14.8315 H       1  UNL1        0.0615
      8 H          -1.2332   -0.9205   16.5513 H       1  UNL1        0.0578
      9 H          -3.0570    0.8049   15.5652 H       1  UNL1        0.0394
     10 H          -3.9650   -0.2025   13.2681 H       1  UNL1        0.0578
@<TRIPOS>BOND
     1     6     1    1
     2    10     5    1
     3     1     5    2
     4     1     2    1
     5     5     3    1
     6     2     7    1
     7     2     4    2
     8     3     9    1
     9     3     4    1
    10     4     8    1
