@<TRIPOS>MOLECULE
1,2,3,4,5
 25 25 0 0 0
SMALL
GASTEIGER

@<TRIPOS>ATOM
      1 C           7.2563   12.6001    1.8303 C.3     1  UNL1        0.0231
      2 C           7.6333   11.5891    2.7806 C.2     1  UNL1       -0.0584
      3 C           6.4923   11.2886    3.5755 C.2     1  UNL1       -0.0477
      4 C           5.4109   12.0920    3.1033 C.2     1  UNL1       -0.0477
      5 C           5.8718   12.8899    2.0282 C.2     1  UNL1       -0.0584
      6 C           8.0622   13.0201    0.6370 C.3     1  UNL1       -0.0510
      7 H           9.1274   13.0135    0.8624 H       1  UNL1        0.0242
      8 H           7.7897   14.0236    0.3148 H       1  UNL1        0.0242
      9 H           7.8829   12.3338   -0.1947 H       1  UNL1        0.0242
     10 C           8.9100   10.8051    2.7516 C.3     1  UNL1       -0.0424
     11 H           9.1515   10.4124    3.7377 H       1  UNL1        0.0275
     12 H           9.7421   11.4245    2.4201 H       1  UNL1        0.0275
     13 H           8.8130    9.9648    2.0597 H       1  UNL1        0.0275
     14 C           6.3306   10.1007    4.4774 C.3     1  UNL1       -0.0395
     15 H           5.8739    9.2771    3.9213 H       1  UNL1        0.0278
     16 H           5.6907   10.3271    5.3295 H       1  UNL1        0.0278
     17 H           7.2904    9.7635    4.8607 H       1  UNL1        0.0278
     18 C           3.9819   11.9031    3.5193 C.3     1  UNL1       -0.0395
     19 H           3.5562   11.0562    2.9747 H       1  UNL1        0.0278
     20 H           3.3750   12.7817    3.3019 H       1  UNL1        0.0278
     21 H           3.9004   11.6874    4.5858 H       1  UNL1        0.0278
     22 C           5.0282   13.7189    1.1064 C.3     1  UNL1       -0.0424
     23 H           4.7808   13.1408    0.2126 H       1  UNL1        0.0275
     24 H           5.5563   14.6168    0.7897 H       1  UNL1        0.0275
     25 H           4.0949   14.0191    1.5800 H       1  UNL1        0.0275
@<TRIPOS>BOND
     1     9     6    1
     2    23    22    1
     3     8     6    1
     4     6     7    1
     5     6     1    1
     6    24    22    1
     7    22    25    1
     8    22     5    1
     9     1     5    1
    10     1     2    1
    11     5     4    2
    12    13    10    1
    13    12    10    1
    14    10     2    1
    15    10    11    1
    16     2     3    2
    17    19    18    1
    18     4    18    1
    19     4     3    1
    20    20    18    1
    21    18    21    1
    22     3    14    1
    23    15    14    1
    24    14    17    1
    25    14    16    1
