@<TRIPOS>MOLECULE
1,2,3,4,5
 25 25 0 0 0
SMALL
GASTEIGER

@<TRIPOS>ATOM
      1 C           4.4521   12.5728   17.4838 C.3     1  UNL1        0.0052
      2 C           4.0870   11.5694   16.5141 C.3     1  UNL1       -0.0053
      3 C           5.2379   11.2926   15.7199 C.3     1  UNL1        0.0052
      4 C           6.3098   12.1037   16.2065 C.2     1  UNL1       -0.0658
      5 C           5.8349   12.8799   17.2939 C.2     1  UNL1       -0.0658
      6 C           3.6266   12.9888   18.6658 C.3     1  UNL1       -0.0545
      7 H           3.7938   12.3027   19.4995 H       1  UNL1        0.0239
      8 H           2.5651   12.9796   18.4241 H       1  UNL1        0.0239
      9 H           3.8917   13.9923   18.9940 H       1  UNL1        0.0239
     10 C           2.8082   10.7856   16.5123 C.3     1  UNL1       -0.0574
     11 H           2.5723   10.4222   15.5134 H       1  UNL1        0.0236
     12 H           1.9755   11.3974   16.8558 H       1  UNL1        0.0236
     13 H           2.8974    9.9253   17.1796 H       1  UNL1        0.0236
     14 C           5.4121   10.1324   14.7849 C.3     1  UNL1       -0.0545
     15 H           6.0354   10.3953   13.9308 H       1  UNL1        0.0239
     16 H           4.4540    9.7852   14.4056 H       1  UNL1        0.0239
     17 H           5.8941    9.3035   15.3100 H       1  UNL1        0.0239
     18 C           7.7412   11.9441   15.7867 C.3     1  UNL1       -0.0430
     19 H           8.3346   12.8275   16.0200 H       1  UNL1        0.0275
     20 H           7.8255   11.7489   14.7167 H       1  UNL1        0.0275
     21 H           8.1817   11.0945   16.3142 H       1  UNL1        0.0275
     22 C           6.6592   13.7350   18.2096 C.3     1  UNL1       -0.0430
     23 H           6.9162   13.1741   19.1112 H       1  UNL1        0.0275
     24 H           6.1122   14.6262   18.5145 H       1  UNL1        0.0275
     25 H           7.5874   14.0484   17.7347 H       1  UNL1        0.0275
@<TRIPOS>BOND
     1    15    14    1
     2    16    14    1
     3    20    18    1
     4    14    17    1
     5    14     3    1
     6    11    10    1
     7     3     4    1
     8     3     2    1
     9    18    19    1
    10    18     4    1
    11    18    21    1
    12     4     5    2
    13    10     2    1
    14    10    12    1
    15    10    13    1
    16     2     1    1
    17     5     1    1
    18     5    22    1
    19     1     6    1
    20    25    22    1
    21    22    24    1
    22    22    23    1
    23     8     6    1
    24     6     9    1
    25     6     7    1
