@<TRIPOS>MOLECULE
1,2,3,4,5
 25 25 0 0 0
SMALL
GASTEIGER

@<TRIPOS>ATOM
      1 C           2.7603   10.2386    5.9023 C.3     1  UNL1        0.0231
      2 C           2.2959   11.2497    5.0070 C.2     1  UNL1       -0.0584
      3 C           0.8822   11.2030    4.9960 C.2     1  UNL1       -0.0477
      4 C           0.4497   10.1767    5.8907 C.2     1  UNL1       -0.0477
      5 C           1.6091    9.5918    6.4704 C.2     1  UNL1       -0.0584
      6 C           4.1678   10.1190    6.4073 C.3     1  UNL1       -0.0510
      7 H           4.3322   10.8247    7.2258 H       1  UNL1        0.0242
      8 H           4.8859   10.3391    5.6190 H       1  UNL1        0.0242
      9 H           4.3670    9.1144    6.7769 H       1  UNL1        0.0242
     10 C           3.1618   12.2994    4.3771 C.3     1  UNL1       -0.0424
     11 H           2.6551   12.7909    3.5483 H       1  UNL1        0.0275
     12 H           4.0914   11.8718    4.0049 H       1  UNL1        0.0275
     13 H           3.4146   13.0626    5.1174 H       1  UNL1        0.0275
     14 C          -0.0341   12.2170    4.3778 C.3     1  UNL1       -0.0395
     15 H          -0.2832   12.9784    5.1217 H       1  UNL1        0.0278
     16 H          -0.9669   11.7626    4.0414 H       1  UNL1        0.0278
     17 H           0.4275   12.7164    3.5270 H       1  UNL1        0.0278
     18 C          -0.9557   10.0376    6.3962 C.3     1  UNL1       -0.0395
     19 H          -1.1616   10.8217    7.1304 H       1  UNL1        0.0278
     20 H          -1.1087    9.0735    6.8747 H       1  UNL1        0.0278
     21 H          -1.6804   10.1333    5.5887 H       1  UNL1        0.0278
     22 C           1.6271    8.6681    7.6503 C.3     1  UNL1       -0.0424
     23 H           2.5223    8.0482    7.6488 H       1  UNL1        0.0275
     24 H           0.7603    8.0097    7.6471 H       1  UNL1        0.0275
     25 H           1.6156    9.2489    8.5760 H       1  UNL1        0.0275
@<TRIPOS>BOND
     1    17    14    1
     2    11    10    1
     3    12    10    1
     4    16    14    1
     5    10     2    1
     6    10    13    1
     7    14     3    1
     8    14    15    1
     9     3     2    2
    10     3     4    1
    11     2     1    1
    12    21    18    1
    13     8     6    1
    14     4    18    1
    15     4     5    2
    16     1     6    1
    17     1     5    1
    18    18    20    1
    19    18    19    1
    20     6     9    1
    21     6     7    1
    22     5    22    1
    23    24    22    1
    24    23    22    1
    25    22    25    1
