@<TRIPOS>MOLECULE
1,2,3,4,5
 25 25 0 0 0
SMALL
GASTEIGER

@<TRIPOS>ATOM
      1 C          10.9817    1.3428    7.4781 C.3     1  UNL1        0.0052
      2 C          10.6923    2.3175    8.4792 C.2     1  UNL1       -0.0658
      3 C           9.3164    2.6303    8.3987 C.2     1  UNL1       -0.0658
      4 C           8.7283    1.8300    7.3565 C.3     1  UNL1        0.0052
      5 C           9.7490    1.0048    6.8155 C.3     1  UNL1       -0.0053
      6 C          12.2677    0.5849    7.3377 C.3     1  UNL1       -0.0545
      7 H          12.2650   -0.2829    8.0013 H       1  UNL1        0.0239
      8 H          13.1207    1.2091    7.5986 H       1  UNL1        0.0239
      9 H          12.4025    0.2323    6.3162 H       1  UNL1        0.0239
     10 C          11.6465    2.8201    9.5183 C.3     1  UNL1       -0.0430
     11 H          11.3703    3.8186    9.8520 H       1  UNL1        0.0275
     12 H          12.6637    2.8585    9.1326 H       1  UNL1        0.0275
     13 H          11.6366    2.1564   10.3862 H       1  UNL1        0.0275
     14 C           8.5638    3.4653    9.3894 C.3     1  UNL1       -0.0430
     15 H           7.5800    3.7360    9.0118 H       1  UNL1        0.0275
     16 H           9.1011    4.3851    9.6201 H       1  UNL1        0.0275
     17 H           8.4333    2.9056   10.3186 H       1  UNL1        0.0275
     18 C           7.2513    1.6906    7.1246 C.3     1  UNL1       -0.0545
     19 H           6.7982    1.1077    7.9301 H       1  UNL1        0.0239
     20 H           7.0521    1.1828    6.1830 H       1  UNL1        0.0239
     21 H           6.7595    2.6646    7.0989 H       1  UNL1        0.0239
     22 C           9.5811   -0.1691    5.8982 C.3     1  UNL1       -0.0574
     23 H          10.3780   -0.2090    5.1563 H       1  UNL1        0.0236
     24 H           8.6331   -0.1303    5.3676 H       1  UNL1        0.0236
     25 H           9.6115   -1.0941    6.4790 H       1  UNL1        0.0236
@<TRIPOS>BOND
     1    23    22    1
     2    24    22    1
     3    22    25    1
     4    22     5    1
     5    20    18    1
     6     9     6    1
     7     5     4    1
     8     5     1    1
     9    21    18    1
    10    18     4    1
    11    18    19    1
    12     6     1    1
    13     6     8    1
    14     6     7    1
    15     4     3    1
    16     1     2    1
    17     3     2    2
    18     3    14    1
    19     2    10    1
    20    15    14    1
    21    12    10    1
    22    14    16    1
    23    14    17    1
    24    10    11    1
    25    10    13    1
