@<TRIPOS>MOLECULE
3,4,5,6,7
 34 34 0 0 0
SMALL
GASTEIGER

@<TRIPOS>ATOM
      1 SI          2.5848    7.8738    7.8302 Si      1  UNL1        0.0000
      2 SI          2.6042    5.1184   13.0790 Si      1  UNL1        0.0000
      3 C           3.0806    5.7898   11.3899 C.3     1  UNL1        0.0000
      4 C           2.2676    6.4090   10.4027 C.3     1  UNL1        0.0000
      5 C           3.0881    6.8700    9.3391 C.3     1  UNL1        0.0000
      6 C           4.4335    6.5613    9.7022 C.2     1  UNL1        0.0000
      7 C           4.4272    5.9187   10.9430 C.2     1  UNL1        0.0000
      8 C           1.5064    9.3371    8.4249 C.3     1  UNL1        0.0000
      9 C           4.1538    8.5091    6.9534 C.3     1  UNL1        0.0000
     10 C           1.5656    6.8310    6.5919 C.3     1  UNL1        0.0000
     11 C           0.8107    5.6463   13.4864 C.3     1  UNL1        0.0000
     12 C           2.7867    3.2118   13.1258 C.3     1  UNL1        0.0000
     13 C           3.7767    5.8739   14.3841 C.3     1  UNL1        0.0000
     14 H           1.2123    6.6275   10.5158 H       1  UNL1        0.0000
     15 H           5.3134    6.8499    9.1390 H       1  UNL1        0.0000
     16 H           5.3013    5.6266   11.5122 H       1  UNL1        0.0000
     17 H           1.2309    9.9716    7.5897 H       1  UNL1        0.0000
     18 H           2.0346    9.9525    9.1454 H       1  UNL1        0.0000
     19 H           0.5882    8.9987    8.8943 H       1  UNL1        0.0000
     20 H           3.8980    9.1128    6.0887 H       1  UNL1        0.0000
     21 H           4.7599    7.6775    6.6062 H       1  UNL1        0.0000
     22 H           4.7648    9.1202    7.6105 H       1  UNL1        0.0000
     23 H           2.1536    5.9924    6.2270 H       1  UNL1        0.0000
     24 H           1.2844    7.4312    5.7317 H       1  UNL1        0.0000
     25 H           0.6478    6.4486    7.0304 H       1  UNL1        0.0000
     26 H           0.0915    5.3157   12.7434 H       1  UNL1        0.0000
     27 H           0.7310    6.7260   13.5600 H       1  UNL1        0.0000
     28 H           0.5045    5.2323   14.4413 H       1  UNL1        0.0000
     29 H           1.8478    2.6938   12.9539 H       1  UNL1        0.0000
     30 H           3.1545    2.8874   14.0947 H       1  UNL1        0.0000
     31 H           3.5018    2.8720   12.3772 H       1  UNL1        0.0000
     32 H           3.4649    5.6028   15.3878 H       1  UNL1        0.0000
     33 H           3.7970    6.9578   14.3267 H       1  UNL1        0.0000
     34 H           4.7937    5.5185   14.2506 H       1  UNL1        0.0000
@<TRIPOS>BOND
     1    24    10    1
     2    20     9    1
     3    23    10    1
     4    10    25    1
     5    10     1    1
     6    21     9    1
     7     9    22    1
     8     9     1    1
     9    17     8    1
    10     1     8    1
    11     1     5    1
    12     8    19    1
    13     8    18    1
    14    15     6    1
    15     5     6    1
    16     5     4    1
    17     6     7    2
    18     4    14    1
    19     4     3    1
    20     7     3    1
    21     7    16    1
    22     3     2    1
    23    31    12    1
    24    26    11    1
    25    29    12    1
    26     2    12    1
    27     2    11    1
    28     2    13    1
    29    12    30    1
    30    11    27    1
    31    11    28    1
    32    34    13    1
    33    33    13    1
    34    13    32    1
