@<TRIPOS>MOLECULE
2,3,4,5,6
 22 22 0 0 0
SMALL
GASTEIGER

@<TRIPOS>ATOM
      1 SI          2.9834    1.3126    7.2560 Si      1  UNL1        0.0000
      2 C           2.0621    2.5264    8.3728 C.3     1  UNL1        0.0000
      3 C           1.8324    2.4255    9.7734 C.3     1  UNL1        0.0000
      4 C           0.9741    3.4714   10.1666 C.2     1  UNL1        0.0000
      5 C           0.6512    4.2279    9.0156 C.2     1  UNL1        0.0000
      6 C           1.3177    3.6512    7.9180 C.3     1  UNL1        0.0000
      7 C           2.6841    1.8665    5.4504 C.3     1  UNL1        0.0000
      8 C           4.8591    1.1518    7.5620 C.3     1  UNL1        0.0000
      9 C           2.1773   -0.3992    7.5465 C.3     1  UNL1        0.0000
     10 H           2.1757    1.6121   10.4017 H       1  UNL1        0.0000
     11 H           0.5229    3.5927   11.1416 H       1  UNL1        0.0000
     12 H          -0.0923    5.0141    8.9681 H       1  UNL1        0.0000
     13 H           1.1839    3.9190    6.8785 H       1  UNL1        0.0000
     14 H           3.1098    2.8487    5.2671 H       1  UNL1        0.0000
     15 H           1.6267    1.9028    5.2066 H       1  UNL1        0.0000
     16 H           3.1525    1.1730    4.7599 H       1  UNL1        0.0000
     17 H           5.3665    2.1061    7.4440 H       1  UNL1        0.0000
     18 H           5.2973    0.4556    6.8525 H       1  UNL1        0.0000
     19 H           5.0760    0.7839    8.5607 H       1  UNL1        0.0000
     20 H           2.5940   -1.1342    6.8669 H       1  UNL1        0.0000
     21 H           1.1050   -0.3701    7.3831 H       1  UNL1        0.0000
     22 H           2.3465   -0.7558    8.5573 H       1  UNL1        0.0000
@<TRIPOS>BOND
     1    16     7    1
     2    15     7    1
     3    14     7    1
     4     7     1    1
     5    18     8    1
     6    20     9    1
     7    13     6    1
     8     1     9    1
     9     1     8    1
    10     1     2    1
    11    21     9    1
    12    17     8    1
    13     9    22    1
    14     8    19    1
    15     6     2    1
    16     6     5    1
    17     2     3    1
    18    12     5    1
    19     5     4    2
    20     3     4    1
    21     3    10    1
    22     4    11    1
