@<TRIPOS>MOLECULE
29,30,32,33,35
 76 76 0 0 0
SMALL
GASTEIGER

@<TRIPOS>ATOM
      1 SI         15.8283    1.2357   27.8478 Si      1  UNL1        0.0000
      2 SI         13.2311    2.8856   32.7537 Si      1  UNL1        0.0000
      3 F          17.0865   -1.8147   30.8993 F       1  UNL1        0.0000
      4 F          19.0970   -1.2908   30.3041 F       1  UNL1        0.0000
      5 F          19.1422    0.6780   32.3048 F       1  UNL1        0.0000
      6 F          17.1516    0.0811   32.8985 F       1  UNL1        0.0000
      7 F          18.2068   -2.6248   33.0859 F       1  UNL1        0.0000
      8 F          20.1574   -1.7387   32.7941 F       1  UNL1        0.0000
      9 F          19.3751    0.1513   34.8940 F       1  UNL1        0.0000
     10 F          17.6724   -1.1492   35.2020 F       1  UNL1        0.0000
     11 F          19.6225   -3.3392   35.2133 F       1  UNL1        0.0000
     12 F          21.1263   -1.7851   35.2993 F       1  UNL1        0.0000
     13 F          20.4568   -2.7229   37.7479 F       1  UNL1        0.0000
     14 F          18.3800   -2.2790   37.4393 F       1  UNL1        0.0000
     15 F          19.8321   -0.6836   37.5087 F       1  UNL1        0.0000
     16 F          16.7137    1.6192   35.5929 F       1  UNL1        0.0000
     17 F          15.0958    0.3210   36.2121 F       1  UNL1        0.0000
     18 F          16.1426    3.4012   37.5426 F       1  UNL1        0.0000
     19 F          14.3686    2.3163   38.1235 F       1  UNL1        0.0000
     20 F          15.6638    0.2180   38.9230 F       1  UNL1        0.0000
     21 F          17.5053    0.7595   37.9298 F       1  UNL1        0.0000
     22 F          17.9331    2.8391   39.4662 F       1  UNL1        0.0000
     23 F          15.9294    2.8281   40.2744 F       1  UNL1        0.0000
     24 F          17.7473    1.9475   42.0102 F       1  UNL1        0.0000
     25 F          16.3456    0.4013   41.4521 F       1  UNL1        0.0000
     26 F          18.1968   -0.8306   39.9281 F       1  UNL1        0.0000
     27 F          19.5691    0.8214   40.1024 F       1  UNL1        0.0000
     28 F          19.0343   -0.3262   41.8373 F       1  UNL1        0.0000
     29 C          14.4814    1.3440   29.1540 C.3     1  UNL1        0.0000
     30 C          14.3521    2.3718   30.1283 C.2     1  UNL1        0.0000
     31 H          14.9330    3.2868   30.1462 H       1  UNL1        0.0000
     32 C          13.4184    1.9752   31.1158 C.2     1  UNL1        0.0000
     33 C          12.9635    0.6764   30.7502 C.2     1  UNL1        0.0000
     34 H          12.3381    0.0395   31.3622 H       1  UNL1        0.0000
     35 C          13.6254    0.2853   29.5705 C.2     1  UNL1        0.0000
     36 H          13.5925   -0.6994   29.1203 H       1  UNL1        0.0000
     37 C          17.0604   -0.0219   28.6330 C.3     1  UNL1        0.0000
     38 H          16.5975   -1.0079   28.6486 H       1  UNL1        0.0000
     39 H          17.9738   -0.1145   28.0506 H       1  UNL1        0.0000
     40 C          17.4048    0.3798   30.0646 C.3     1  UNL1        0.0000
     41 H          18.1388    1.1850   30.0748 H       1  UNL1        0.0000
     42 H          16.5076    0.7091   30.5930 H       1  UNL1        0.0000
     43 C          17.9706   -0.7880   30.8587 C.3     1  UNL1        0.0000
     44 C          18.2884   -0.3654   32.3279 C.3     1  UNL1        0.0000
     45 C          18.9074   -1.4869   33.2146 C.3     1  UNL1        0.0000
     46 C          18.9284   -1.1026   34.7321 C.3     1  UNL1        0.0000
     47 C          19.8381   -2.0605   35.5627 C.3     1  UNL1        0.0000
     48 C          19.6123   -1.9269   37.1016 C.3     1  UNL1        0.0000
     49 C          16.6910    2.9080   27.5690 C.3     1  UNL1        0.0000
     50 H          17.4213    2.8385   26.7691 H       1  UNL1        0.0000
     51 H          17.2134    3.2449   28.4593 H       1  UNL1        0.0000
     52 H          15.9725    3.6747   27.2966 H       1  UNL1        0.0000
     53 C          15.1010    0.5000   26.2466 C.3     1  UNL1        0.0000
     54 H          14.2399    1.0807   25.9284 H       1  UNL1        0.0000
     55 H          14.7914   -0.5328   26.3790 H       1  UNL1        0.0000
     56 H          15.8278    0.5169   25.4418 H       1  UNL1        0.0000
     57 C          14.4368    1.8965   33.8800 C.3     1  UNL1        0.0000
     58 H          14.1399    0.8492   33.9185 H       1  UNL1        0.0000
     59 H          15.4389    1.9136   33.4551 H       1  UNL1        0.0000
     60 C          14.5007    2.4378   35.2987 C.3     1  UNL1        0.0000
     61 H          14.8466    3.4715   35.3036 H       1  UNL1        0.0000
     62 H          13.5232    2.3865   35.7778 H       1  UNL1        0.0000
     63 C          15.4737    1.6182   36.1369 C.3     1  UNL1        0.0000
     64 C          15.5994    2.1695   37.5909 C.3     1  UNL1        0.0000
     65 C          16.4257    1.2598   38.5532 C.3     1  UNL1        0.0000
     66 C          16.9150    2.0366   39.8170 C.3     1  UNL1        0.0000
     67 C          17.3772    1.1345   41.0037 C.3     1  UNL1        0.0000
     68 C          11.5043    2.8603   33.5645 C.3     1  UNL1        0.0000
     69 H          10.7371    3.2119   32.8820 H       1  UNL1        0.0000
     70 H          11.4958    3.5202   34.4268 H       1  UNL1        0.0000
     71 H          11.2294    1.8698   33.9153 H       1  UNL1        0.0000
     72 C          13.8726    4.6695   32.5427 C.3     1  UNL1        0.0000
     73 H          13.4213    5.1427   31.6751 H       1  UNL1        0.0000
     74 H          14.9515    4.7007   32.4194 H       1  UNL1        0.0000
     75 H          13.6259    5.2778   33.4070 H       1  UNL1        0.0000
     76 C          18.5738    0.1808   40.7011 C.3     1  UNL1        0.0000
@<TRIPOS>BOND
     1    56    53    1
     2    54    53    1
     3    53    55    1
     4    53     1    1
     5    50    49    1
     6    52    49    1
     7    49     1    1
     8    49    51    1
     9     1    37    1
    10     1    29    1
    11    39    37    1
    12    37    38    1
    13    37    40    1
    14    36    35    1
    15    29    35    1
    16    29    30    1
    17    35    33    2
    18    40    41    1
    19    40    42    1
    20    40    43    1
    21    30    31    1
    22    30    32    2
    23     4    43    1
    24    33    32    1
    25    33    34    1
    26    43     3    1
    27    43    44    1
    28    32     2    1
    29    73    72    1
    30     5    44    1
    31    44     6    1
    32    44    45    1
    33    74    72    1
    34    72     2    1
    35    72    75    1
    36     2    68    1
    37     2    57    1
    38     8    45    1
    39    69    68    1
    40     7    45    1
    41    45    46    1
    42    59    57    1
    43    68    71    1
    44    68    70    1
    45    57    58    1
    46    57    60    1
    47    46     9    1
    48    46    10    1
    49    46    47    1
    50    11    47    1
    51    60    61    1
    52    60    62    1
    53    60    63    1
    54    12    47    1
    55    47    48    1
    56    16    63    1
    57    63    17    1
    58    63    64    1
    59    48    14    1
    60    48    15    1
    61    48    13    1
    62    18    64    1
    63    64    19    1
    64    64    65    1
    65    21    65    1
    66    65    20    1
    67    65    66    1
    68    22    66    1
    69    66    23    1
    70    66    67    1
    71    26    76    1
    72    27    76    1
    73    76    67    1
    74    76    28    1
    75    67    25    1
    76    67    24    1
