@<TRIPOS>MOLECULE
29,30,32,33,35
 76 76 0 0 0
SMALL
GASTEIGER

@<TRIPOS>ATOM
      1 SI          8.6696    1.2076   30.0588 Si      1  UNL1        0.0000
      2 SI         11.2293    2.8761   25.1427 Si      1  UNL1        0.0000
      3 F           7.3734   -1.8301   27.0007 F       1  UNL1        0.0000
      4 F           5.3727   -1.2793   27.6047 F       1  UNL1        0.0000
      5 F           5.3424    0.6869   25.6028 F       1  UNL1        0.0000
      6 F           7.3229    0.0661   25.0002 F       1  UNL1        0.0000
      7 F           6.2398   -2.6254   24.8164 F       1  UNL1        0.0000
      8 F           4.2989   -1.7231   25.1231 F       1  UNL1        0.0000
      9 F           5.0766    0.1597   23.0181 F       1  UNL1        0.0000
     10 F           6.7704   -1.1493   22.6973 F       1  UNL1        0.0000
     11 F           4.8061   -3.3293   22.7016 F       1  UNL1        0.0000
     12 F           3.3127   -1.7649   22.6225 F       1  UNL1        0.0000
     13 F           3.9610   -2.7090   20.1711 F       1  UNL1        0.0000
     14 F           6.0431   -2.2820   20.4678 F       1  UNL1        0.0000
     15 F           4.6040   -0.6747   20.4044 F       1  UNL1        0.0000
     16 F           7.7287    1.6220   22.3159 F       1  UNL1        0.0000
     17 F           9.3409    0.3170   21.6961 F       1  UNL1        0.0000
     18 F           8.3023    3.3989   20.3633 F       1  UNL1        0.0000
     19 F          10.0734    2.3094   19.7822 F       1  UNL1        0.0000
     20 F           8.7731    0.2135   18.9853 F       1  UNL1        0.0000
     21 F           6.9334    0.7599   19.9792 F       1  UNL1        0.0000
     22 F           6.5089    2.8388   18.4411 F       1  UNL1        0.0000
     23 F           8.5123    2.8237   17.6324 F       1  UNL1        0.0000
     24 F           6.6924    1.9454   15.8976 F       1  UNL1        0.0000
     25 F           8.0916    0.3971   16.4562 F       1  UNL1        0.0000
     26 F           6.2385   -0.8302   17.9823 F       1  UNL1        0.0000
     27 F           4.8689    0.8237   17.8058 F       1  UNL1        0.0000
     28 F           5.4020   -0.3267   16.0724 F       1  UNL1        0.0000
     29 C          10.0148    1.3253   28.7520 C.3     1  UNL1        0.0000
     30 C          10.1280    2.3521   27.7742 C.2     1  UNL1        0.0000
     31 H           9.5389    3.2618   27.7584 H       1  UNL1        0.0000
     32 C          11.0574    1.9616   26.7804 C.2     1  UNL1        0.0000
     33 C          11.5256    0.6670   27.1447 C.2     1  UNL1        0.0000
     34 H          12.1515    0.0341   26.5289 H       1  UNL1        0.0000
     35 C          10.8755    0.2724   28.3297 C.2     1  UNL1        0.0000
     36 H          10.9195   -0.7114   28.7809 H       1  UNL1        0.0000
     37 C           7.4298   -0.0381   29.2664 C.3     1  UNL1        0.0000
     38 H           7.8861   -1.0272   29.2481 H       1  UNL1        0.0000
     39 H           6.5156   -0.1262   29.8484 H       1  UNL1        0.0000
     40 C           7.0876    0.3687   27.8358 C.3     1  UNL1        0.0000
     41 H           6.3647    1.1839   27.8274 H       1  UNL1        0.0000
     42 H           7.9879    0.6855   27.3050 H       1  UNL1        0.0000
     43 C           6.5031   -0.7918   27.0444 C.3     1  UNL1        0.0000
     44 C           6.1836   -0.3665   25.5764 C.3     1  UNL1        0.0000
     45 C           5.5479   -1.4816   24.6935 C.3     1  UNL1        0.0000
     46 C           5.5182   -1.0965   23.1764 C.3     1  UNL1        0.0000
     47 C           4.5974   -2.0494   22.3521 C.3     1  UNL1        0.0000
     48 C           4.8157   -1.9193   20.8119 C.3     1  UNL1        0.0000
     49 C           7.8168    2.8821   30.3547 C.3     1  UNL1        0.0000
     50 H           7.0988    2.8137   31.1657 H       1  UNL1        0.0000
     51 H           7.2815    3.2223   29.4733 H       1  UNL1        0.0000
     52 H           8.5417    3.6466   30.6167 H       1  UNL1        0.0000
     53 C           9.3870    0.4502   31.6544 C.3     1  UNL1        0.0000
     54 H          10.2423    1.0281   31.9917 H       1  UNL1        0.0000
     55 H           9.7021   -0.5790   31.5083 H       1  UNL1        0.0000
     56 H           8.6519    0.4509   32.4519 H       1  UNL1        0.0000
     57 C          10.0078    1.8958   24.0259 C.3     1  UNL1        0.0000
     58 H          10.2931    0.8452   23.9904 H       1  UNL1        0.0000
     59 H           9.0075    1.9258   24.4540 H       1  UNL1        0.0000
     60 C           9.9457    2.4325   22.6054 C.3     1  UNL1        0.0000
     61 H           9.6061    3.4683   22.5974 H       1  UNL1        0.0000
     62 H          10.9223    2.3737   22.1256 H       1  UNL1        0.0000
     63 C           8.9679    1.6157   21.7702 C.3     1  UNL1        0.0000
     64 C           8.8425    2.1659   20.3158 C.3     1  UNL1        0.0000
     65 C           8.0137    1.2573   19.3547 C.3     1  UNL1        0.0000
     66 C           7.5255    2.0342   18.0905 C.3     1  UNL1        0.0000
     67 C           7.0613    1.1323   16.9045 C.3     1  UNL1        0.0000
     68 C          12.9452    2.8465   24.3093 C.3     1  UNL1        0.0000
     69 H          13.7194    3.2142   24.9750 H       1  UNL1        0.0000
     70 H          12.9381    3.4916   23.4359 H       1  UNL1        0.0000
     71 H          13.2213    1.8516   23.9721 H       1  UNL1        0.0000
     72 C          10.5960    4.6613   25.3686 C.3     1  UNL1        0.0000
     73 H          11.0492    5.1255   26.2404 H       1  UNL1        0.0000
     74 H           9.5173    4.6964   25.4919 H       1  UNL1        0.0000
     75 H          10.8456    5.2757   24.5095 H       1  UNL1        0.0000
     76 C           5.8632    0.1809   17.2080 C.3     1  UNL1        0.0000
@<TRIPOS>BOND
     1    24    67    1
     2    28    76    1
     3    25    67    1
     4    67    76    1
     5    67    66    1
     6    76    27    1
     7    76    26    1
     8    23    66    1
     9    66    22    1
    10    66    65    1
    11    20    65    1
    12    65    21    1
    13    65    64    1
    14    19    64    1
    15    13    48    1
    16    64    18    1
    17    64    63    1
    18    15    48    1
    19    14    48    1
    20    48    47    1
    21    17    63    1
    22    63    16    1
    23    63    60    1
    24    62    60    1
    25    47    12    1
    26    47    11    1
    27    47    46    1
    28    61    60    1
    29    60    57    1
    30    10    46    1
    31     9    46    1
    32    46    45    1
    33    70    68    1
    34    71    68    1
    35    58    57    1
    36    57    59    1
    37    57     2    1
    38    68    69    1
    39    68     2    1
    40    75    72    1
    41    45     7    1
    42    45     8    1
    43    45    44    1
    44     6    44    1
    45     2    72    1
    46     2    32    1
    47    72    74    1
    48    72    73    1
    49    44     5    1
    50    44    43    1
    51    34    33    1
    52    32    33    1
    53    32    30    2
    54     3    43    1
    55    43     4    1
    56    43    40    1
    57    33    35    2
    58    42    40    1
    59    31    30    1
    60    30    29    1
    61    41    40    1
    62    40    37    1
    63    35    29    1
    64    35    36    1
    65    29     1    1
    66    38    37    1
    67    37    39    1
    68    37     1    1
    69    51    49    1
    70     1    49    1
    71     1    53    1
    72    49    52    1
    73    49    50    1
    74    55    53    1
    75    53    54    1
    76    53    56    1
