@<TRIPOS>MOLECULE
1,2,3,4,5
 10 10 0 0 0
SMALL
GASTEIGER

@<TRIPOS>ATOM
      1 C           0.5317    2.0472    2.6781 C.2     1  UNL1       -0.0763
      2 C          -0.1888    3.0830    3.3015 C.3     1  UNL1        0.0054
      3 C           0.7338    3.9299    3.9577 C.2     1  UNL1       -0.0763
      4 C           2.0316    3.4242    3.7131 C.2     1  UNL1       -0.0654
      5 C           1.9067    2.2503    2.9408 C.2     1  UNL1       -0.0654
      6 H           0.1134    1.3003    2.0149 H       1  UNL1        0.0578
      7 H          -1.2527    3.2605    3.2109 H       1  UNL1        0.0394
      8 H           0.4922    4.8773    4.4293 H       1  UNL1        0.0578
      9 H           2.9631    3.9275    3.9411 H       1  UNL1        0.0615
     10 H           2.7248    1.6876    2.5080 H       1  UNL1        0.0615
@<TRIPOS>BOND
     1     6     1    1
     2    10     5    1
     3     1     5    2
     4     1     2    1
     5     5     4    1
     6     7     2    1
     7     2     3    1
     8     4     9    1
     9     4     3    2
    10     3     8    1
