@<TRIPOS>MOLECULE
1,2,3,4,5
 10 10 0 0 0
SMALL
GASTEIGER

@<TRIPOS>ATOM
      1 C           1.2408    2.7312    7.5163 C.2     1  UNL1       -0.0763
      2 C           2.2976    3.2062    6.7180 C.2     1  UNL1       -0.0654
      3 C           3.0803    2.0963    6.3231 C.2     1  UNL1       -0.0654
      4 C           2.5113    0.9375    6.8963 C.2     1  UNL1       -0.0763
      5 C           1.3627    1.3276    7.6198 C.3     1  UNL1        0.0054
      6 H           0.5183    3.3422    8.0438 H       1  UNL1        0.0578
      7 H           2.5456    4.2496    6.5620 H       1  UNL1        0.0615
      8 H           4.0309    2.1370    5.8045 H       1  UNL1        0.0615
      9 H           2.9592   -0.0467    6.8961 H       1  UNL1        0.0578
     10 H           0.7502    0.6887    8.2463 H       1  UNL1        0.0394
@<TRIPOS>BOND
     1     8     3    1
     2     3     2    1
     3     3     4    2
     4     7     2    1
     5     2     1    2
     6     9     4    1
     7     4     5    1
     8     1     5    1
     9     1     6    1
    10     5    10    1
