@<TRIPOS>MOLECULE
1,2,3,4,5
 13 13 0 0 0
SMALL
GASTEIGER

@<TRIPOS>ATOM
      1 C           7.9589    0.7101    2.0925 C.2     1  UNL1       -0.0650
      2 C           7.3534    1.1576    0.8956 C.2     1  UNL1       -0.0625
      3 C           8.2997    1.9369    0.1860 C.2     1  UNL1       -0.0651
      4 C           9.4991    1.9465    0.9293 C.2     1  UNL1       -0.0761
      5 C           9.2884    1.1963    2.1084 C.3     1  UNL1        0.0084
      6 C           7.3002   -0.1213    3.1581 C.3     1  UNL1       -0.0429
      7 H           6.3779    0.8565    0.5312 H       1  UNL1        0.0617
      8 H           8.1674    2.3276   -0.8156 H       1  UNL1        0.0615
      9 H          10.4564    2.3209    0.5878 H       1  UNL1        0.0578
     10 H          10.0421    0.9421    2.8450 H       1  UNL1        0.0397
     11 H           6.4697    0.4284    3.6176 H       1  UNL1        0.0275
     12 H           6.9036   -1.0484    2.7394 H       1  UNL1        0.0275
     13 H           8.0174   -0.3686    3.9400 H       1  UNL1        0.0275
@<TRIPOS>BOND
     1     8     3    1
     2     3     2    1
     3     3     4    2
     4     7     2    1
     5     9     4    1
     6     2     1    2
     7     4     5    1
     8     1     5    1
     9     1     6    1
    10     5    10    1
    11    12     6    1
    12     6    11    1
    13     6    13    1
