@<TRIPOS>MOLECULE
1,2,3,4,5
 13 13 0 0 0
SMALL
GASTEIGER

@<TRIPOS>ATOM
      1 C           9.3827    5.0370    2.4171 C.2     1  UNL1       -0.0650
      2 C           8.2626    5.4811    3.1679 C.3     1  UNL1        0.0084
      3 C           7.1804    5.6631    2.2841 C.2     1  UNL1       -0.0761
      4 C           7.6147    5.3238    0.9845 C.2     1  UNL1       -0.0651
      5 C           8.9773    4.9511    1.0637 C.2     1  UNL1       -0.0625
      6 C          10.7634    4.7880    2.9631 C.3     1  UNL1       -0.0429
      7 H           8.2723    5.7275    4.2235 H       1  UNL1        0.0397
      8 H           6.2118    6.0751    2.5427 H       1  UNL1        0.0578
      9 H           7.0447    5.4527    0.0731 H       1  UNL1        0.0615
     10 H           9.6328    4.7929    0.2157 H       1  UNL1        0.0617
     11 H          11.2031    5.7191    3.3260 H       1  UNL1        0.0275
     12 H          10.7252    4.0878    3.8029 H       1  UNL1        0.0275
     13 H          11.4187    4.3840    2.1908 H       1  UNL1        0.0275
@<TRIPOS>BOND
     1     9     4    1
     2    10     5    1
     3     4     5    1
     4     4     3    2
     5     5     1    2
     6    13     6    1
     7     3     8    1
     8     3     2    1
     9     1     6    1
    10     1     2    1
    11     6    11    1
    12     6    12    1
    13     2     7    1
