@<TRIPOS>MOLECULE
1,2,3,4,5
 10 10 0 0 0
SMALL
GASTEIGER

@<TRIPOS>ATOM
      1 C          -0.2324    4.8160   -0.4574 C.3     1  UNL1        0.0054
      2 C           0.3394    4.5668   -1.7228 C.2     1  UNL1       -0.0763
      3 C           0.2577    3.1775   -1.9714 C.2     1  UNL1       -0.0654
      4 C          -0.3798    2.5781   -0.8668 C.2     1  UNL1       -0.0654
      5 C          -0.6638    3.5837    0.0783 C.2     1  UNL1       -0.0763
      6 H          -0.4300    5.7892   -0.0268 H       1  UNL1        0.0394
      7 H           0.6528    5.3200   -2.4347 H       1  UNL1        0.0578
      8 H           0.5053    2.6865   -2.9068 H       1  UNL1        0.0615
      9 H          -0.7142    1.5494   -0.8099 H       1  UNL1        0.0615
     10 H          -1.2326    3.4576    0.9922 H       1  UNL1        0.0578
@<TRIPOS>BOND
     1     8     3    1
     2     7     2    1
     3     3     2    2
     4     3     4    1
     5     2     1    1
     6     4     9    1
     7     4     5    2
     8     1     6    1
     9     1     5    1
    10     5    10    1
