@<TRIPOS>MOLECULE
1,2,3,4,5
 10 10 0 0 0
SMALL
GASTEIGER

@<TRIPOS>ATOM
      1 C           3.7504    2.1112    1.0310 C.2     1  UNL1       -0.0837
      2 C           2.6559    2.0470    1.9179 C.3     1  UNL1       -0.0127
      3 C           1.6140    1.3473    1.2756 C.3     1  UNL1       -0.0235
      4 C           2.0691    0.9710   -0.0076 C.3     1  UNL1       -0.0127
      5 C           3.3869    1.4475   -0.1601 C.2     1  UNL1       -0.0837
      6 H           4.7340    2.5010    1.2635 H       1  UNL1        0.0572
      7 H           2.6571    2.3707    2.9515 H       1  UNL1        0.0352
      8 H           0.6839    1.0369    1.7392 H       1  UNL1        0.0315
      9 H           1.5621    0.3042   -0.6956 H       1  UNL1        0.0352
     10 H           4.0500    1.2151   -0.9857 H       1  UNL1        0.0572
@<TRIPOS>BOND
     1    10     5    1
     2     9     4    1
     3     5     4    1
     4     5     1    2
     5     4     3    1
     6     1     6    1
     7     1     2    1
     8     3     8    1
     9     3     2    1
    10     2     7    1
