@<TRIPOS>MOLECULE
1,2,3,4,5
 10 10 0 0 0
SMALL
GASTEIGER

@<TRIPOS>ATOM
      1 C          -2.0203    1.2357    3.7523 C.2     1  UNL1       -0.0763
      2 C          -1.8520    2.6217    3.9384 C.2     1  UNL1       -0.0654
      3 C          -2.2720    2.9430    5.2420 C.2     1  UNL1       -0.0654
      4 C          -2.6878    1.7519    5.8761 C.2     1  UNL1       -0.0763
      5 C          -2.5403    0.6962    4.9470 C.3     1  UNL1        0.0054
      6 H          -1.8847    0.7038    2.8195 H       1  UNL1        0.0578
      7 H          -1.5780    3.3331    3.1701 H       1  UNL1        0.0615
      8 H          -2.3934    3.9469    5.6306 H       1  UNL1        0.0615
      9 H          -3.1797    1.6812    6.8409 H       1  UNL1        0.0578
     10 H          -2.9068   -0.3136    5.0756 H       1  UNL1        0.0394
@<TRIPOS>BOND
     1     6     1    1
     2     7     2    1
     3     1     2    2
     4     1     5    1
     5     2     3    1
     6     5    10    1
     7     5     4    1
     8     3     8    1
     9     3     4    2
    10     4     9    1
