@<TRIPOS>MOLECULE
1,2,3,4,5
 10 10 0 0 0
SMALL
GASTEIGER

@<TRIPOS>ATOM
      1 C           1.5947    1.8245    7.3782 C.2     1  UNL1       -0.0763
      2 C           1.7583    2.8386    6.4191 C.2     1  UNL1       -0.0654
      3 C           0.6133    3.6636    6.4508 C.2     1  UNL1       -0.0654
      4 C          -0.2434    3.1705    7.4590 C.2     1  UNL1       -0.0763
      5 C           0.3547    2.0312    8.0237 C.3     1  UNL1        0.0054
      6 H           2.3464    1.0981    7.6637 H       1  UNL1        0.0578
      7 H           2.6639    3.0250    5.8571 H       1  UNL1        0.0615
      8 H           0.4873    4.5954    5.9114 H       1  UNL1        0.0615
      9 H          -1.1307    3.6629    7.8378 H       1  UNL1        0.0578
     10 H          -0.0052    1.4949    8.8933 H       1  UNL1        0.0394
@<TRIPOS>BOND
     1     7     2    1
     2     8     3    1
     3     2     3    1
     4     2     1    2
     5     3     4    2
     6     1     6    1
     7     1     5    1
     8     4     9    1
     9     4     5    1
    10     5    10    1
