@<TRIPOS>MOLECULE
2,3,4,5,6
 22 22 0 0 0
SMALL
GASTEIGER

@<TRIPOS>ATOM
      1 SI         11.0285   19.8673    7.6284 Si      1  UNL1        0.0000
      2 C          10.5116   18.1201    7.1242 C.2     1  UNL1        0.0000
      3 C          11.2601   17.2751    6.2537 C.2     1  UNL1        0.0000
      4 C          10.4179   16.2930    5.7214 C.2     1  UNL1        0.0000
      5 C           9.1373   16.4667    6.2853 C.2     1  UNL1        0.0000
      6 C           9.1855   17.5966    7.1345 C.3     1  UNL1        0.0000
      7 C          11.8421   20.0789    9.3433 C.3     1  UNL1        0.0000
      8 C           9.4524   20.9490    7.5569 C.3     1  UNL1        0.0000
      9 C          12.2647   20.4630    6.2995 C.3     1  UNL1        0.0000
     10 H          12.2954   17.4287    5.9806 H       1  UNL1        0.0000
     11 H          10.6949   15.5331    5.0031 H       1  UNL1        0.0000
     12 H           8.2442   15.9276    5.9978 H       1  UNL1        0.0000
     13 H           8.3183   18.1096    7.5321 H       1  UNL1        0.0000
     14 H          12.5160   19.2582    9.5733 H       1  UNL1        0.0000
     15 H          11.1040   20.1420   10.1375 H       1  UNL1        0.0000
     16 H          12.4237   20.9963    9.3667 H       1  UNL1        0.0000
     17 H           8.9702   20.8898    6.5860 H       1  UNL1        0.0000
     18 H           9.7039   21.9893    7.7356 H       1  UNL1        0.0000
     19 H           8.7221   20.6589    8.3062 H       1  UNL1        0.0000
     20 H          11.8869   20.3026    5.2941 H       1  UNL1        0.0000
     21 H          13.2151   19.9450    6.3834 H       1  UNL1        0.0000
     22 H          12.4611   21.5243    6.4123 H       1  UNL1        0.0000
@<TRIPOS>BOND
     1    11     4    1
     2    20     9    1
     3     4     3    1
     4     4     5    2
     5    10     3    1
     6    12     5    1
     7     3     2    2
     8     5     6    1
     9     9    21    1
    10     9    22    1
    11     9     1    1
    12    17     8    1
    13     2     6    1
    14     2     1    1
    15     6    13    1
    16     8     1    1
    17     8    18    1
    18     8    19    1
    19     1     7    1
    20     7    16    1
    21     7    14    1
    22     7    15    1
