@<TRIPOS>MOLECULE
1,2,3,4,5
 28 28 0 0 0
SMALL
GASTEIGER

@<TRIPOS>ATOM
      1 C          -1.1252    1.2668    7.2435 C.3     1  UNL1        0.0234
      2 C          -0.2816    0.8268    8.3042 C.2     1  UNL1       -0.0584
      3 C           0.2361   -0.4576    7.9589 C.2     1  UNL1       -0.0477
      4 C          -0.2827   -0.8145    6.6801 C.2     1  UNL1       -0.0475
      5 C          -1.1169    0.2546    6.2288 C.2     1  UNL1       -0.0556
      6 C          -2.0371    2.4579    7.2932 C.3     1  UNL1       -0.0510
      7 H          -2.3099    2.7844    6.2912 H       1  UNL1        0.0242
      8 H          -1.5626    3.2949    7.8035 H       1  UNL1        0.0242
      9 H          -2.9535    2.2088    7.8348 H       1  UNL1        0.0242
     10 C          -0.1332    1.4860    9.6428 C.3     1  UNL1       -0.0424
     11 H          -0.9082    1.1297   10.3265 H       1  UNL1        0.0275
     12 H          -0.2272    2.5679    9.5611 H       1  UNL1        0.0275
     13 H           0.8361    1.2624   10.0873 H       1  UNL1        0.0275
     14 C           0.9583   -1.3655    8.9134 C.3     1  UNL1       -0.0395
     15 H           1.7773   -0.8521    9.4183 H       1  UNL1        0.0278
     16 H           1.3611   -2.2407    8.4066 H       1  UNL1        0.0278
     17 H           0.2633   -1.7141    9.6817 H       1  UNL1        0.0278
     18 C          -0.1901   -2.1743    6.0455 C.3     1  UNL1       -0.0395
     19 H          -0.9684   -2.8275    6.4492 H       1  UNL1        0.0278
     20 H           0.7725   -2.6432    6.2441 H       1  UNL1        0.0278
     21 H          -0.3218   -2.1197    4.9655 H       1  UNL1        0.0278
     22 C          -2.0791    0.1754    5.0743 C.3     1  UNL1       -0.0332
     23 H          -1.6554   -0.4267    4.2652 H       1  UNL1        0.0308
     24 H          -2.2725    1.1731    4.6729 H       1  UNL1        0.0308
     25 C          -3.4023   -0.4520    5.5225 C.3     1  UNL1       -0.0615
     26 H          -3.2380   -1.4569    5.9055 H       1  UNL1        0.0233
     27 H          -4.0971   -0.5100    4.6876 H       1  UNL1        0.0233
     28 H          -3.8578    0.1439    6.3100 H       1  UNL1        0.0233
@<TRIPOS>BOND
     1    23    22    1
     2    24    22    1
     3    27    25    1
     4    21    18    1
     5    22    25    1
     6    22     5    1
     7    25    26    1
     8    25    28    1
     9    18    20    1
    10    18    19    1
    11    18     4    1
    12     5     4    2
    13     5     1    1
    14     7     6    1
    15     4     3    1
    16     1     6    1
    17     1     2    1
    18     6     8    1
    19     6     9    1
    20     3     2    2
    21     3    14    1
    22     2    10    1
    23    16    14    1
    24    14    15    1
    25    14    17    1
    26    12    10    1
    27    10    13    1
    28    10    11    1
