@<TRIPOS>MOLECULE
1,2,3,4,5
 10 10 0 0 0
SMALL
GASTEIGER

@<TRIPOS>ATOM
      1 C           0.7494    4.7245    3.2290 C.2     1  UNL1       -0.0763
      2 C           2.1101    5.0013    2.9785 C.2     1  UNL1       -0.0654
      3 C           2.2762    5.1391    1.5775 C.2     1  UNL1       -0.0654
      4 C           1.0182    4.9380    0.9710 C.2     1  UNL1       -0.0763
      5 C           0.0776    4.6611    1.9868 C.3     1  UNL1        0.0054
      6 H           0.2790    4.7112    4.2053 H       1  UNL1        0.0578
      7 H           2.8590    5.2269    3.7285 H       1  UNL1        0.0615
      8 H           3.1755    5.4767    1.0755 H       1  UNL1        0.0615
      9 H           0.7969    5.0539   -0.0830 H       1  UNL1        0.0578
     10 H          -0.9933    4.5552    1.8448 H       1  UNL1        0.0394
@<TRIPOS>BOND
     1     9     4    1
     2     4     3    2
     3     4     5    1
     4     8     3    1
     5     3     2    1
     6    10     5    1
     7     5     1    1
     8     2     1    2
     9     2     7    1
    10     1     6    1
