@<TRIPOS>MOLECULE
1,2,3,4,5
 10 10 0 0 0
SMALL
GASTEIGER

@<TRIPOS>ATOM
      1 C           2.9169    1.6768    3.7978 C.2     1  UNL1       -0.0763
      2 C           2.6485    0.7574    2.7551 C.3     1  UNL1        0.0054
      3 C           1.8501    1.4139    1.7943 C.2     1  UNL1       -0.0763
      4 C           1.6251    2.7347    2.2394 C.2     1  UNL1       -0.0654
      5 C           2.2860    2.8982    3.4718 C.2     1  UNL1       -0.0654
      6 H           3.6298    1.5332    4.6022 H       1  UNL1        0.0578
      7 H           3.0866   -0.2264    2.6410 H       1  UNL1        0.0394
      8 H           1.5534    1.0101    0.8341 H       1  UNL1        0.0578
      9 H           1.1405    3.5167    1.6681 H       1  UNL1        0.0615
     10 H           2.4099    3.8358    4.0021 H       1  UNL1        0.0615
@<TRIPOS>BOND
     1     8     3    1
     2     9     4    1
     3     3     4    2
     4     3     2    1
     5     4     5    1
     6     7     2    1
     7     2     1    1
     8     5     1    2
     9     5    10    1
    10     1     6    1
