@<TRIPOS>MOLECULE
1,2,3,4,5
 10 10 0 0 0
SMALL
GASTEIGER

@<TRIPOS>ATOM
      1 C           0.4876    2.3078    5.8730 C.3     1  UNL1        0.0054
      2 C          -0.7848    1.9285    5.3792 C.2     1  UNL1       -0.0763
      3 C          -1.6989    2.9461    5.7168 C.2     1  UNL1       -0.0654
      4 C          -0.9990    3.9703    6.3787 C.2     1  UNL1       -0.0654
      5 C           0.3526    3.5736    6.4904 C.2     1  UNL1       -0.0763
      6 H           1.3512    1.6618    5.9389 H       1  UNL1        0.0394
      7 H          -1.0385    0.9728    4.9330 H       1  UNL1        0.0578
      8 H          -2.7691    2.9128    5.5578 H       1  UNL1        0.0615
      9 H          -1.4533    4.8321    6.8539 H       1  UNL1        0.0615
     10 H           1.1111    4.0745    7.0814 H       1  UNL1        0.0578
@<TRIPOS>BOND
     1     7     2    1
     2     2     3    2
     3     2     1    1
     4     8     3    1
     5     3     4    1
     6     1     6    1
     7     1     5    1
     8     4     5    2
     9     4     9    1
    10     5    10    1
