@<TRIPOS>MOLECULE
1,2,3,4,5
 10 10 0 0 0
SMALL
GASTEIGER

@<TRIPOS>ATOM
      1 C          -2.1667    4.4594    1.4654 C.3     1  UNL1        0.0054
      2 C          -2.2518    3.1823    0.8658 C.2     1  UNL1       -0.0763
      3 C          -0.9575    2.6219    0.8505 C.2     1  UNL1       -0.0654
      4 C          -0.0702    3.5542    1.4282 C.2     1  UNL1       -0.0654
      5 C          -0.8158    4.6874    1.8126 C.2     1  UNL1       -0.0763
      6 H          -2.9563    5.2024    1.4893 H       1  UNL1        0.0394
      7 H          -3.1242    2.7587    0.3857 H       1  UNL1        0.0578
      8 H          -0.6788    1.6878    0.3789 H       1  UNL1        0.0615
      9 H           1.0077    3.4674    1.4435 H       1  UNL1        0.0615
     10 H          -0.4043    5.6278    2.1635 H       1  UNL1        0.0578
@<TRIPOS>BOND
     1     8     3    1
     2     7     2    1
     3     3     2    2
     4     3     4    1
     5     2     1    1
     6     4     9    1
     7     4     5    2
     8     1     6    1
     9     1     5    1
    10     5    10    1
