@<TRIPOS>MOLECULE
1,2,3,4,5
 10 10 0 0 0
SMALL
GASTEIGER

@<TRIPOS>ATOM
      1 C          -1.1582    4.4591    5.0854 C.3     1  UNL1       -0.0235
      2 C          -1.0728    3.1819    5.6849 C.3     1  UNL1       -0.0127
      3 C          -2.3670    2.6212    5.7000 C.2     1  UNL1       -0.0837
      4 C          -3.2546    3.5535    5.1226 C.2     1  UNL1       -0.0837
      5 C          -2.5091    4.6869    4.7384 C.3     1  UNL1       -0.0127
      6 H          -0.3687    5.2022    5.0616 H       1  UNL1        0.0315
      7 H          -0.2003    2.7583    6.1648 H       1  UNL1        0.0352
      8 H          -2.6455    1.6871    6.1715 H       1  UNL1        0.0572
      9 H          -4.3324    3.4666    5.1073 H       1  UNL1        0.0572
     10 H          -2.9207    5.6273    4.3877 H       1  UNL1        0.0352
@<TRIPOS>BOND
     1    10     5    1
     2     5     1    1
     3     5     4    1
     4     6     1    1
     5     1     2    1
     6     9     4    1
     7     4     3    2
     8     2     3    1
     9     2     7    1
    10     3     8    1
