@<TRIPOS>MOLECULE
1,2,3,4,5
 10 10 0 0 0
SMALL
GASTEIGER

@<TRIPOS>ATOM
      1 C           1.6901    1.9212    4.3522 C.3     1  UNL1       -0.0127
      2 C           2.5573    1.0718    3.6303 C.3     1  UNL1       -0.0235
      3 C           1.7776    0.3411    2.7013 C.3     1  UNL1       -0.0127
      4 C           0.4324    0.7337    2.8576 C.2     1  UNL1       -0.0837
      5 C           0.3755    1.7152    3.8692 C.2     1  UNL1       -0.0837
      6 H           1.9649    2.5145    5.2167 H       1  UNL1        0.0352
      7 H           3.6049    0.9003    3.8468 H       1  UNL1        0.0315
      8 H           2.1370   -0.4518    2.0556 H       1  UNL1        0.0352
      9 H          -0.4182    0.2926    2.3514 H       1  UNL1        0.0572
     10 H          -0.5340    2.1147    4.3058 H       1  UNL1        0.0572
@<TRIPOS>BOND
     1     8     3    1
     2     9     4    1
     3     3     4    1
     4     3     2    1
     5     4     5    2
     6     2     7    1
     7     2     1    1
     8     5    10    1
     9     5     1    1
    10     1     6    1
