@<TRIPOS>MOLECULE
1,2,3,4,5
 10 10 0 0 0
SMALL
GASTEIGER

@<TRIPOS>ATOM
      1 C           1.6240    5.7883    4.4234 C.2     1  UNL1       -0.0763
      2 C           1.5981    5.5424    3.0296 C.3     1  UNL1        0.0054
      3 C           0.3127    5.8858    2.5559 C.2     1  UNL1       -0.0763
      4 C          -0.4546    6.3345    3.6532 C.2     1  UNL1       -0.0654
      5 C           0.3585    6.2837    4.8031 C.2     1  UNL1       -0.0654
      6 H           2.5053    5.7693    5.0513 H       1  UNL1        0.0578
      7 H           2.4498    5.2801    2.4138 H       1  UNL1        0.0394
      8 H          -0.0042    5.8938    1.5192 H       1  UNL1        0.0578
      9 H          -1.4571    6.7450    3.5968 H       1  UNL1        0.0615
     10 H           0.1079    6.6952    5.7736 H       1  UNL1        0.0615
@<TRIPOS>BOND
     1     8     3    1
     2     7     2    1
     3     3     2    1
     4     3     4    2
     5     2     1    1
     6     9     4    1
     7     4     5    1
     8     1     5    2
     9     1     6    1
    10     5    10    1
