@<TRIPOS>MOLECULE
1,2,3,4,5
 10 10 0 0 0
SMALL
GASTEIGER

@<TRIPOS>ATOM
      1 C          -1.1037    0.8476    5.8580 C.2     1  UNL1       -0.0763
      2 C          -1.4120    2.0914    5.2683 C.2     1  UNL1       -0.0654
      3 C          -0.3056    2.9516    5.4627 C.2     1  UNL1       -0.0654
      4 C           0.6791    2.2365    6.1805 C.2     1  UNL1       -0.0763
      5 C           0.1865    0.9379    6.4222 C.3     1  UNL1        0.0054
      6 H          -1.7839    0.0111    5.9544 H       1  UNL1        0.0578
      7 H          -2.3797    2.3703    4.8681 H       1  UNL1        0.0615
      8 H          -0.2819    4.0163    5.2531 H       1  UNL1        0.0615
      9 H           1.5857    2.6576    6.6013 H       1  UNL1        0.0578
     10 H           0.6471    0.1915    7.0556 H       1  UNL1        0.0394
@<TRIPOS>BOND
     1     7     2    1
     2     8     3    1
     3     2     3    1
     4     2     1    2
     5     3     4    2
     6     1     6    1
     7     1     5    1
     8     4     5    1
     9     4     9    1
    10     5    10    1
