@<TRIPOS>MOLECULE
3,5,6,15,16
 40 41 0 0 0
SMALL
GASTEIGER

@<TRIPOS>ATOM
      1 SI          0.0926    1.0987    5.9301 Si      1  UNL1        0.0000
      2 SI          5.2838    1.2208    3.3155 Si      1  UNL1        0.0000
      3 C           2.7052    1.3472    4.7154 C.3     1  UNL1        0.0000
      4 H           3.1745    1.3889    5.6901 H       1  UNL1        0.0000
      5 C           1.3009    1.3536    4.5018 C.3     1  UNL1        0.0000
      6 C           1.1127    1.4579    3.0791 C.ar    1  UNL1        0.0000
      7 C          -0.0393    1.5028    2.2719 C.ar    1  UNL1        0.0000
      8 H          -1.0192    1.4841    2.7244 H       1  UNL1        0.0000
      9 C           0.1044    1.5980    0.9095 C.ar    1  UNL1        0.0000
     10 H          -0.7728    1.6359    0.2818 H       1  UNL1        0.0000
     11 C           1.3720    1.6514    0.3064 C.ar    1  UNL1        0.0000
     12 H           1.4354    1.7315   -0.7678 H       1  UNL1        0.0000
     13 C           2.5211    1.5999    1.0553 C.ar    1  UNL1        0.0000
     14 H           3.4925    1.6495    0.5848 H       1  UNL1        0.0000
     15 C           2.4205    1.4966    2.4544 C.ar    1  UNL1        0.0000
     16 C           3.4159    1.3989    3.4881 C.3     1  UNL1        0.0000
     17 C          -1.7123    0.8393    5.3885 C.3     1  UNL1        0.0000
     18 H          -1.8051    0.0079    4.6972 H       1  UNL1        0.0000
     19 H          -2.1235    1.7273    4.9183 H       1  UNL1        0.0000
     20 H          -2.3295    0.6178    6.2535 H       1  UNL1        0.0000
     21 C           0.7878   -0.4426    6.8266 C.3     1  UNL1        0.0000
     22 H           0.8090   -1.3098    6.1645 H       1  UNL1        0.0000
     23 H           0.1837   -0.7113    7.6879 H       1  UNL1        0.0000
     24 H           1.8006   -0.2755    7.1882 H       1  UNL1        0.0000
     25 C           0.2166    2.6160    7.0818 C.3     1  UNL1        0.0000
     26 H          -0.3920    2.4703    7.9676 H       1  UNL1        0.0000
     27 H          -0.1331    3.5173    6.5891 H       1  UNL1        0.0000
     28 H           1.2353    2.7967    7.4096 H       1  UNL1        0.0000
     29 C           5.6165   -0.4326    2.4254 C.3     1  UNL1        0.0000
     30 H           5.1610   -1.2639    2.9667 H       1  UNL1        0.0000
     31 H           6.6804   -0.6387    2.3520 H       1  UNL1        0.0000
     32 H           5.2160   -0.4397    1.4148 H       1  UNL1        0.0000
     33 C           6.0128    2.6957    2.3526 C.3     1  UNL1        0.0000
     34 H           7.0918    2.6057    2.2870 H       1  UNL1        0.0000
     35 H           5.7908    3.6378    2.8437 H       1  UNL1        0.0000
     36 H           5.6274    2.7562    1.3403 H       1  UNL1        0.0000
     37 C           6.0078    1.1415    5.0784 C.3     1  UNL1        0.0000
     38 H           5.6242    0.2814    5.6211 H       1  UNL1        0.0000
     39 H           5.7813    2.0340    5.6536 H       1  UNL1        0.0000
     40 H           7.0880    1.0472    5.0417 H       1  UNL1        0.0000
@<TRIPOS>BOND
     1    12    11    1
     2    10     9    1
     3    11     9   ar
     4    11    13   ar
     5    14    13    1
     6     9     7   ar
     7    13    15   ar
     8    36    33    1
     9    32    29    1
    10     7     8    1
    11     7     6   ar
    12    34    33    1
    13    31    29    1
    14    33    35    1
    15    33     2    1
    16    29    30    1
    17    29     2    1
    18    15     6   ar
    19    15    16    1
    20     6     5    1
    21     2    16    1
    22     2    37    1
    23    16     3    1
    24     5     3    1
    25     5     1    1
    26    18    17    1
    27     3     4    1
    28    19    17    1
    29    40    37    1
    30    37    38    1
    31    37    39    1
    32    17     1    1
    33    17    20    1
    34     1    21    1
    35     1    25    1
    36    22    21    1
    37    27    25    1
    38    21    24    1
    39    21    23    1
    40    25    28    1
    41    25    26    1
