@<TRIPOS>MOLECULE
1,2,3,4,5
 10 10 0 0 0
SMALL
GASTEIGER

@<TRIPOS>ATOM
      1 C           0.2155    0.8562    6.5633 C.2     1  UNL1       -0.0837
      2 C          -0.8435    0.4713    5.7219 C.3     1  UNL1       -0.0127
      3 C          -0.8971    1.3792    4.6443 C.3     1  UNL1       -0.0235
      4 C           0.1410    2.3244    4.8221 C.3     1  UNL1       -0.0127
      5 C           0.8194    1.9997    6.0101 C.2     1  UNL1       -0.0837
      6 H           0.4354    0.4464    7.5375 H       1  UNL1        0.0572
      7 H          -1.5862   -0.2829    5.9449 H       1  UNL1        0.0352
      8 H          -1.7143    1.4580    3.9389 H       1  UNL1        0.0315
      9 H           0.2804    3.2352    4.2552 H       1  UNL1        0.0352
     10 H           1.5703    2.6032    6.4961 H       1  UNL1        0.0572
@<TRIPOS>BOND
     1     8     3    1
     2     9     4    1
     3     3     4    1
     4     3     2    1
     5     4     5    1
     6     2     7    1
     7     2     1    1
     8     5    10    1
     9     5     1    2
    10     1     6    1
