@<TRIPOS>MOLECULE
1,2,3,4,5
 10 10 0 0 0
SMALL
GASTEIGER

@<TRIPOS>ATOM
      1 C           2.7984    4.1589    2.8337 C.2     1  UNL1       -0.0837
      2 C           2.9844    2.8883    2.2403 C.3     1  UNL1       -0.0127
      3 C           1.9032    2.6627    1.3525 C.3     1  UNL1       -0.0235
      4 C           1.0580    3.7965    1.4047 C.3     1  UNL1       -0.0127
      5 C           1.6060    4.7120    2.3255 C.2     1  UNL1       -0.0837
      6 H           3.5221    4.6851    3.4398 H       1  UNL1        0.0572
      7 H           3.8755    2.2774    2.3138 H       1  UNL1        0.0352
      8 H           1.8361    1.8530    0.6364 H       1  UNL1        0.0315
      9 H           0.2338    4.0015    0.7364 H       1  UNL1        0.0352
     10 H           1.2475    5.7165    2.5064 H       1  UNL1        0.0572
@<TRIPOS>BOND
     1     8     3    1
     2     9     4    1
     3     3     4    1
     4     3     2    1
     5     4     5    1
     6     2     7    1
     7     2     1    1
     8     5    10    1
     9     5     1    2
    10     1     6    1
