@<TRIPOS>MOLECULE
2,4,6,8,10
 31 32 0 0 0
SMALL
GASTEIGER

@<TRIPOS>ATOM
      1 SI          8.1872    0.9688    3.9185 Si      1  UNL1        0.0000
      2 C           5.9990    0.5412    1.9660 C.3     1  UNL1        0.0000
      3 H           6.5603   -0.1559    1.3551 H       1  UNL1        0.0000
      4 C           4.6292    0.8305    1.8272 C.2     1  UNL1        0.0000
      5 H           3.9615    0.4114    1.0858 H       1  UNL1        0.0000
      6 C           4.2620    1.7064    2.8657 C.2     1  UNL1        0.0000
      7 H           3.2534    2.0396    3.0755 H       1  UNL1        0.0000
      8 C           5.3979    1.9127    3.6785 C.3     1  UNL1        0.0000
      9 H           5.4024    2.4055    4.6418 H       1  UNL1        0.0000
     10 C           6.4926    1.2107    3.1222 C.3     1  UNL1        0.0000
     11 C           9.1019    2.6235    4.1791 C.3     1  UNL1        0.0000
     12 H           8.5621    3.2788    4.8580 H       1  UNL1        0.0000
     13 H           9.2375    3.1420    3.2328 H       1  UNL1        0.0000
     14 H          10.0833    2.4503    4.6102 H       1  UNL1        0.0000
     15 C           9.2193   -0.2762    2.9178 C.3     1  UNL1        0.0000
     16 H          10.1804   -0.4468    3.3918 H       1  UNL1        0.0000
     17 H           9.4017    0.0962    1.9140 H       1  UNL1        0.0000
     18 H           8.7168   -1.2357    2.8390 H       1  UNL1        0.0000
     19 C           7.7898    0.2665    5.5939 C.1     1  UNL1        0.0000
     20 C           7.5429   -0.1954    6.6846 C.1     1  UNL1        0.0000
     21 C           7.2511   -0.7409    7.9568 C.ar    1  UNL1        0.0000
     22 C           6.9526    0.0968    9.0324 C.ar    1  UNL1        0.0000
     23 H           6.9488    1.1670    8.8851 H       1  UNL1        0.0000
     24 C           6.6666   -0.4448   10.2706 C.ar    1  UNL1        0.0000
     25 H           6.4359    0.2064   11.1012 H       1  UNL1        0.0000
     26 C           6.6750   -1.8191   10.4504 C.ar    1  UNL1        0.0000
     27 H           6.4509   -2.2383   11.4201 H       1  UNL1        0.0000
     28 C           6.9715   -2.6550    9.3853 C.ar    1  UNL1        0.0000
     29 H           6.9782   -3.7261    9.5259 H       1  UNL1        0.0000
     30 C           7.2587   -2.1242    8.1428 C.ar    1  UNL1        0.0000
     31 H           7.4905   -2.7681    7.3073 H       1  UNL1        0.0000
@<TRIPOS>BOND
     1     5     4    1
     2     3     2    1
     3     4     2    1
     4     4     6    2
     5    17    15    1
     6     2    10    1
     7    18    15    1
     8     6     7    1
     9     6     8    1
    10    15    16    1
    11    15     1    1
    12    10     8    1
    13    10     1    1
    14    13    11    1
    15     8     9    1
    16     1    11    1
    17     1    19    1
    18    11    14    1
    19    11    12    1
    20    19    20    3
    21    20    21    1
    22    31    30    1
    23    21    30   ar
    24    21    22   ar
    25    30    28   ar
    26    23    22    1
    27    22    24   ar
    28    28    29    1
    29    28    26   ar
    30    24    26   ar
    31    24    25    1
    32    26    27    1
