@<TRIPOS>MOLECULE
1,3,5,7,9
 10 10 0 0 0
SMALL
GASTEIGER

@<TRIPOS>ATOM
      1 C           6.1575    5.0791    0.8384 C.2     1  UNL1       -0.0763
      2 H           6.4380    5.3524   -0.1712 H       1  UNL1        0.0578
      3 C           4.8388    4.8882    1.3086 C.2     1  UNL1       -0.0654
      4 H           3.9369    5.0041    0.7220 H       1  UNL1        0.0615
      5 C           4.9017    4.6432    2.6904 C.2     1  UNL1       -0.0654
      6 H           4.0547    4.5851    3.3608 H       1  UNL1        0.0615
      7 C           6.2628    4.6650    3.0780 C.2     1  UNL1       -0.0763
      8 H           6.6323    4.6405    4.0941 H       1  UNL1        0.0578
      9 C           7.0329    4.9577    1.9351 C.3     1  UNL1        0.0054
     10 H           8.0982    5.1484    1.9164 H       1  UNL1        0.0394
@<TRIPOS>BOND
     1     2     1    1
     2     4     3    1
     3     1     3    2
     4     1     9    1
     5     3     5    1
     6    10     9    1
     7     9     7    1
     8     5     7    2
     9     5     6    1
    10     7     8    1
