@<TRIPOS>MOLECULE
1,2,3,4,5
 25 25 0 0 0
SMALL
GASTEIGER

@<TRIPOS>ATOM
      1 C           4.1287    1.0394    1.6029 C.2     1  UNL1       -0.0584
      2 C           4.7959    0.9971    2.8735 C.3     1  UNL1        0.0231
      3 C           4.1931   -0.0563    3.6499 C.2     1  UNL1       -0.0584
      4 C           3.1025   -0.5569    2.9295 C.2     1  UNL1       -0.0477
      5 C           3.0335    0.1494    1.6690 C.2     1  UNL1       -0.0477
      6 C           4.6023    1.7826    0.3919 C.3     1  UNL1       -0.0424
      7 C           6.1582    1.5588    3.1502 C.3     1  UNL1       -0.0510
      8 C           4.7331   -0.6097    4.9300 C.3     1  UNL1       -0.0424
      9 C           2.3082   -1.7708    3.2996 C.3     1  UNL1       -0.0395
     10 C           2.1720   -0.2593    0.5112 C.3     1  UNL1       -0.0395
     11 H           5.2697    1.1478   -0.1966 H       1  UNL1        0.0275
     12 H           3.7705    2.0765   -0.2460 H       1  UNL1        0.0275
     13 H           5.1503    2.6795    0.6731 H       1  UNL1        0.0275
     14 H           6.9226    0.8229    2.8887 H       1  UNL1        0.0242
     15 H           6.3418    2.4605    2.5713 H       1  UNL1        0.0242
     16 H           6.2783    1.8069    4.2031 H       1  UNL1        0.0242
     17 H           5.4743   -1.3850    4.7198 H       1  UNL1        0.0275
     18 H           5.2182    0.1651    5.5202 H       1  UNL1        0.0275
     19 H           3.9412   -1.0546    5.5301 H       1  UNL1        0.0275
     20 H           2.9290   -2.6640    3.1967 H       1  UNL1        0.0278
     21 H           1.9655   -1.7246    4.3333 H       1  UNL1        0.0278
     22 H           1.4412   -1.8924    2.6544 H       1  UNL1        0.0278
     23 H           2.5896   -1.1456    0.0272 H       1  UNL1        0.0278
     24 H           1.1569   -0.5007    0.8262 H       1  UNL1        0.0278
     25 H           2.1161    0.5331   -0.2328 H       1  UNL1        0.0278
@<TRIPOS>BOND
     1    12     6    1
     2    25    10    1
     3    11     6    1
     4    23    10    1
     5     6    13    1
     6     6     1    1
     7    10    24    1
     8    10     5    1
     9     1     5    2
    10     1     2    1
    11     5     4    1
    12    15     7    1
    13    22     9    1
    14     2     7    1
    15     2     3    1
    16    14     7    1
    17     4     9    1
    18     4     3    2
    19     7    16    1
    20    20     9    1
    21     9    21    1
    22     3     8    1
    23    17     8    1
    24     8    18    1
    25     8    19    1
