@<TRIPOS>MOLECULE
1,2,3,4,5
 25 25 0 0 0
SMALL
GASTEIGER

@<TRIPOS>ATOM
      1 C           1.3518   10.1750   13.3316 C.3     1  UNL1        0.0231
      2 C           1.8229   11.2322   14.1832 C.2     1  UNL1       -0.0584
      3 C           2.9015   10.7331   14.9332 C.2     1  UNL1       -0.0477
      4 C           3.0541    9.3308   14.6331 C.2     1  UNL1       -0.0477
      5 C           2.0602    8.9727   13.7052 C.2     1  UNL1       -0.0584
      6 C           0.0529   10.1875   12.5846 C.3     1  UNL1       -0.0510
      7 H           0.0966    9.5338   11.7168 H       1  UNL1        0.0242
      8 H          -0.1889   11.1916   12.2440 H       1  UNL1        0.0242
      9 H          -0.7549    9.8416   13.2337 H       1  UNL1        0.0242
     10 C           1.1860   12.5749   14.3474 C.3     1  UNL1       -0.0424
     11 H           0.7480   12.9222   13.4140 H       1  UNL1        0.0275
     12 H           1.9089   13.3182   14.6782 H       1  UNL1        0.0275
     13 H           0.3926   12.5168   15.0963 H       1  UNL1        0.0275
     14 C           3.5661   11.4530   16.0643 C.3     1  UNL1       -0.0395
     15 H           4.4847   10.9566   16.3704 H       1  UNL1        0.0278
     16 H           2.8976   11.4767   16.9284 H       1  UNL1        0.0278
     17 H           3.7985   12.4845   15.8010 H       1  UNL1        0.0278
     18 C           3.9402    8.3897   15.3905 C.3     1  UNL1       -0.0395
     19 H           4.9299    8.8163   15.5591 H       1  UNL1        0.0278
     20 H           4.0604    7.4509   14.8536 H       1  UNL1        0.0278
     21 H           3.5047    8.1657   16.3673 H       1  UNL1        0.0278
     22 C           1.6237    7.5926   13.3310 C.3     1  UNL1       -0.0424
     23 H           2.4268    6.8679   13.4403 H       1  UNL1        0.0275
     24 H           1.2736    7.5546   12.3020 H       1  UNL1        0.0275
     25 H           0.7993    7.2888   13.9808 H       1  UNL1        0.0275
@<TRIPOS>BOND
     1     7     6    1
     2     8     6    1
     3    24    22    1
     4     6     9    1
     5     6     1    1
     6    22    23    1
     7    22     5    1
     8    22    25    1
     9     1     5    1
    10     1     2    1
    11    11    10    1
    12     5     4    2
    13     2    10    1
    14     2     3    2
    15    10    12    1
    16    10    13    1
    17     4     3    1
    18     4    18    1
    19    20    18    1
    20     3    14    1
    21    18    19    1
    22    18    21    1
    23    17    14    1
    24    14    15    1
    25    14    16    1
