@<TRIPOS>MOLECULE
1,2,3,4,5
 10 10 0 0 0
SMALL
GASTEIGER

@<TRIPOS>ATOM
      1 C           6.0767   18.0880   10.1974 C.2     1  UNL1       -0.0763
      2 C           4.8062   18.2662    9.6154 C.2     1  UNL1       -0.0654
      3 C           4.1498   17.0272    9.6047 C.2     1  UNL1       -0.0654
      4 C           4.9993   16.0736   10.2103 C.2     1  UNL1       -0.0763
      5 C           6.1954   16.7305   10.5876 C.3     1  UNL1        0.0054
      6 H           6.7712   18.8813   10.4358 H       1  UNL1        0.0578
      7 H           4.4065   19.2010    9.2500 H       1  UNL1        0.0615
      8 H           3.1317   16.8526    9.2884 H       1  UNL1        0.0615
      9 H           4.6954   15.0884   10.5431 H       1  UNL1        0.0578
     10 H           6.9524   16.3221   11.2452 H       1  UNL1        0.0394
@<TRIPOS>BOND
     1     7     2    1
     2     8     3    1
     3     3     2    1
     4     3     4    2
     5     2     1    2
     6     1     6    1
     7     1     5    1
     8     4     9    1
     9     4     5    1
    10     5    10    1
