@<TRIPOS>MOLECULE
1,2,3,4,5
 10 10 0 0 0
SMALL
GASTEIGER

@<TRIPOS>ATOM
      1 C           7.8467   14.3616    7.9641 C.2     1  UNL1       -0.0763
      2 C           7.3058   14.6554    6.6821 C.2     1  UNL1       -0.0654
      3 C           5.9188   14.3696    6.7303 C.2     1  UNL1       -0.0654
      4 C           5.6079   13.9511    8.0333 C.2     1  UNL1       -0.0763
      5 C           6.7996   13.9378    8.7890 C.3     1  UNL1        0.0054
      6 H           8.8958   14.3564    8.2236 H       1  UNL1        0.0578
      7 H           7.8805   14.8182    5.7771 H       1  UNL1        0.0615
      8 H           5.2534   14.3600    5.8790 H       1  UNL1        0.0615
      9 H           4.6469   13.5767    8.3586 H       1  UNL1        0.0578
     10 H           6.9093   13.5727    9.8010 H       1  UNL1        0.0394
@<TRIPOS>BOND
     1     7     2    1
     2     8     3    1
     3     2     3    1
     4     2     1    2
     5     3     4    2
     6     1     6    1
     7     1     5    1
     8     4     9    1
     9     4     5    1
    10     5    10    1
