@<TRIPOS>MOLECULE
1,2,4,6,8
 29 30 0 0 0
SMALL
GASTEIGER

@<TRIPOS>ATOM
      1 C           6.8041    2.7484    3.3902 C.3     1  UNL1        0.0000
      2 C           7.8672    3.6759    3.4954 C.2     1  UNL1        0.0000
      3 H           8.9115    3.4454    3.3325 H       1  UNL1        0.0000
      4 C           7.3297    4.9683    3.6726 C.2     1  UNL1        0.0000
      5 H           7.8851    5.8976    3.6962 H       1  UNL1        0.0000
      6 C           5.9266    4.8606    3.6204 C.2     1  UNL1        0.0000
      7 H           5.2275    5.6868    3.6389 H       1  UNL1        0.0000
      8 C           5.5995    3.5032    3.4718 C.2     1  UNL1        0.0000
      9 H           4.6006    3.1012    3.3481 H       1  UNL1        0.0000
     10 SI          6.9367    0.9201    2.9386 Si      1  UNL1        0.0000
     11 C           8.0348   -0.0299    4.1804 C.3     1  UNL1        0.0000
     12 H           8.0225   -1.0940    3.9662 H       1  UNL1        0.0000
     13 H           7.6922    0.1119    5.2020 H       1  UNL1        0.0000
     14 H           9.0693    0.2969    4.1197 H       1  UNL1        0.0000
     15 C           7.7722    0.8413    1.2184 C.3     1  UNL1        0.0000
     16 H           7.8262   -0.1839    0.8684 H       1  UNL1        0.0000
     17 H           8.7838    1.2337    1.2467 H       1  UNL1        0.0000
     18 H           7.2217    1.4123    0.4781 H       1  UNL1        0.0000
     19 C           5.1870    0.1964    2.8249 C.ar    1  UNL1        0.0000
     20 C           4.7272   -0.7591    3.7257 C.ar    1  UNL1        0.0000
     21 H           5.3807   -1.1042    4.5118 H       1  UNL1        0.0000
     22 C           3.4421   -1.2629    3.6384 C.ar    1  UNL1        0.0000
     23 H           3.1031   -2.0012    4.3509 H       1  UNL1        0.0000
     24 C           2.5878   -0.8193    2.6435 C.ar    1  UNL1        0.0000
     25 H           1.5826   -1.2097    2.5753 H       1  UNL1        0.0000
     26 C           3.0276    0.1307    1.7372 C.ar    1  UNL1        0.0000
     27 H           2.3655    0.4834    0.9590 H       1  UNL1        0.0000
     28 C           4.3136    0.6305    1.8302 C.ar    1  UNL1        0.0000
     29 H           4.6469    1.3731    1.1186 H       1  UNL1        0.0000
@<TRIPOS>BOND
     1    18    15    1
     2    16    15    1
     3    27    26    1
     4    29    28    1
     5    15    17    1
     6    15    10    1
     7    26    28   ar
     8    26    24   ar
     9    28    19   ar
    10    25    24    1
    11    24    22   ar
    12    19    10    1
    13    19    20   ar
    14    10     1    1
    15    10    11    1
    16     3     2    1
    17     9     8    1
    18     1     8    1
    19     1     2    1
    20     8     6    2
    21     2     4    2
    22     6     7    1
    23     6     4    1
    24    22    20   ar
    25    22    23    1
    26     4     5    1
    27    20    21    1
    28    12    11    1
    29    14    11    1
    30    11    13    1
