@<TRIPOS>MOLECULE
1,2,4,6,8
 29 30 0 0 0
SMALL
GASTEIGER

@<TRIPOS>ATOM
      1 C           7.4492    3.5935    7.7071 C.3     1  UNL1        0.0000
      2 C           7.9912    4.7438    7.0684 C.2     1  UNL1        0.0000
      3 H           7.7866    5.7680    7.3539 H       1  UNL1        0.0000
      4 C           8.9370    4.3286    6.1181 C.2     1  UNL1        0.0000
      5 H           9.5970    4.9740    5.5530 H       1  UNL1        0.0000
      6 C           8.9723    2.9160    6.1256 C.2     1  UNL1        0.0000
      7 H           9.6691    2.2965    5.5768 H       1  UNL1        0.0000
      8 C           8.0768    2.4689    7.1145 C.2     1  UNL1        0.0000
      9 H           7.9591    1.4461    7.4503 H       1  UNL1        0.0000
     10 SI          6.3672    3.5776    9.2546 Si      1  UNL1        0.0000
     11 C           5.9694    5.3759    9.7636 C.3     1  UNL1        0.0000
     12 H           6.8737    5.9494    9.9467 H       1  UNL1        0.0000
     13 H           5.3868    5.3882   10.6791 H       1  UNL1        0.0000
     14 H           5.3938    5.8832    8.9958 H       1  UNL1        0.0000
     15 C           4.7820    2.5371    9.0636 C.3     1  UNL1        0.0000
     16 H           4.1617    2.9193    8.2575 H       1  UNL1        0.0000
     17 H           4.1924    2.5605    9.9748 H       1  UNL1        0.0000
     18 H           5.0092    1.4982    8.8399 H       1  UNL1        0.0000
     19 C           7.4667    2.8111   10.6102 C.ar    1  UNL1        0.0000
     20 C           8.8444    2.6762   10.4643 C.ar    1  UNL1        0.0000
     21 H           9.3131    2.9913    9.5421 H       1  UNL1        0.0000
     22 C           9.6250    2.1472   11.4767 C.ar    1  UNL1        0.0000
     23 H          10.6933    2.0522   11.3412 H       1  UNL1        0.0000
     24 C           9.0400    1.7409   12.6636 C.ar    1  UNL1        0.0000
     25 H           9.6470    1.3264   13.4556 H       1  UNL1        0.0000
     26 C           7.6713    1.8704   12.8297 C.ar    1  UNL1        0.0000
     27 H           7.2074    1.5563   13.7540 H       1  UNL1        0.0000
     28 C           6.8994    2.4013   11.8127 C.ar    1  UNL1        0.0000
     29 H           5.8332    2.5001   11.9517 H       1  UNL1        0.0000
@<TRIPOS>BOND
     1     5     4    1
     2     7     6    1
     3     4     6    1
     4     4     2    2
     5     6     8    2
     6     2     3    1
     7     2     1    1
     8     8     9    1
     9     8     1    1
    10     1    10    1
    11    16    15    1
    12    18    15    1
    13    14    11    1
    14    15    10    1
    15    15    17    1
    16    10    11    1
    17    10    19    1
    18    21    20    1
    19    11    12    1
    20    11    13    1
    21    20    19   ar
    22    20    22   ar
    23    19    28   ar
    24    23    22    1
    25    22    24   ar
    26    28    29    1
    27    28    26   ar
    28    24    26   ar
    29    24    25    1
    30    26    27    1
