@<TRIPOS>MOLECULE
1,2,3,4,5
 10 10 0 0 0
SMALL
GASTEIGER

@<TRIPOS>ATOM
      1 C           3.8563    3.8935    7.3203 C.2     1  UNL1       -0.0763
      2 C           4.0544    3.2860    6.0617 C.2     1  UNL1       -0.0654
      3 C           4.8647    2.1539    6.2431 C.2     1  UNL1       -0.0654
      4 C           5.1915    2.0611    7.6132 C.2     1  UNL1       -0.0763
      5 C           4.5730    3.1444    8.2830 C.3     1  UNL1        0.0054
      6 H           3.3644    4.8429    7.4996 H       1  UNL1        0.0578
      7 H           3.7539    3.6896    5.1039 H       1  UNL1        0.0615
      8 H           5.2526    1.5149    5.4597 H       1  UNL1        0.0615
      9 H           5.8969    1.3541    8.0332 H       1  UNL1        0.0578
     10 H           4.7353    3.4374    9.3133 H       1  UNL1        0.0394
@<TRIPOS>BOND
     1     7     2    1
     2     8     3    1
     3     2     3    1
     4     2     1    2
     5     3     4    2
     6     1     6    1
     7     1     5    1
     8     4     9    1
     9     4     5    1
    10     5    10    1
