@<TRIPOS>MOLECULE
1,2,3,4,5
 10 10 0 0 0
SMALL
GASTEIGER

@<TRIPOS>ATOM
      1 C           1.1367    3.0179    6.0745 C.2     1  UNL1       -0.0654
      2 C           1.2770    1.7103    5.5624 C.2     1  UNL1       -0.0763
      3 C           0.6673    0.8203    6.4795 C.3     1  UNL1        0.0054
      4 C           0.1727    1.5817    7.5605 C.2     1  UNL1       -0.0763
      5 C           0.4755    2.9369    7.3139 C.2     1  UNL1       -0.0654
      6 H           1.3582    3.9364    5.5475 H       1  UNL1        0.0615
      7 H           1.6507    1.4416    4.5796 H       1  UNL1        0.0578
      8 H           0.4948   -0.2347    6.3037 H       1  UNL1        0.0394
      9 H          -0.4357    1.2179    8.3779 H       1  UNL1        0.0578
     10 H           0.1310    3.7785    7.9015 H       1  UNL1        0.0615
@<TRIPOS>BOND
     1     7     2    1
     2     6     1    1
     3     2     1    2
     4     2     3    1
     5     1     5    1
     6     8     3    1
     7     3     4    1
     8     5     4    2
     9     5    10    1
    10     4     9    1
