@<TRIPOS>MOLECULE
1,2,3,4,5
 25 25 0 0 0
SMALL
GASTEIGER

@<TRIPOS>ATOM
      1 C           0.6400    1.5275    2.5459 C.3     1  UNL1        0.0231
      2 C           1.5477    1.3094    3.6399 C.2     1  UNL1       -0.0584
      3 C           2.7858    1.9180    3.3089 C.2     1  UNL1       -0.0477
      4 C           2.6675    2.4764    1.9899 C.2     1  UNL1       -0.0477
      5 C           1.3590    2.2157    1.5163 C.2     1  UNL1       -0.0584
      6 C          -0.7017    0.8752    2.3940 C.3     1  UNL1       -0.0510
      7 H          -0.5863   -0.1262    1.9738 H       1  UNL1        0.0242
      8 H          -1.3434    1.4519    1.7299 H       1  UNL1        0.0242
      9 H          -1.2011    0.7865    3.3573 H       1  UNL1        0.0242
     10 C           1.2819    0.4068    4.8060 C.3     1  UNL1       -0.0424
     11 H           1.9857    0.5934    5.6137 H       1  UNL1        0.0275
     12 H           1.3861   -0.6355    4.4950 H       1  UNL1        0.0275
     13 H           0.2716    0.5452    5.1880 H       1  UNL1        0.0275
     14 C           4.0745    1.6831    4.0432 C.3     1  UNL1       -0.0395
     15 H           3.9341    1.7089    5.1224 H       1  UNL1        0.0278
     16 H           4.8332    2.4204    3.7848 H       1  UNL1        0.0278
     17 H           4.4680    0.6989    3.7770 H       1  UNL1        0.0278
     18 C           3.7883    2.9952    1.1401 C.3     1  UNL1       -0.0395
     19 H           4.1252    2.2117    0.4568 H       1  UNL1        0.0278
     20 H           4.6415    3.3021    1.7417 H       1  UNL1        0.0278
     21 H           3.4672    3.8457    0.5389 H       1  UNL1        0.0278
     22 C           0.8569    2.4803    0.1301 C.3     1  UNL1       -0.0424
     23 H           1.3358    3.3574   -0.3014 H       1  UNL1        0.0275
     24 H          -0.2192    2.6444    0.1280 H       1  UNL1        0.0275
     25 H           1.0724    1.6242   -0.5133 H       1  UNL1        0.0275
@<TRIPOS>BOND
     1    25    22    1
     2    23    22    1
     3    24    22    1
     4    22     5    1
     5    19    18    1
     6    21    18    1
     7    18    20    1
     8    18     4    1
     9     5     4    2
    10     5     1    1
    11     8     6    1
    12     7     6    1
    13     4     3    1
    14     6     1    1
    15     6     9    1
    16     1     2    1
    17     3     2    2
    18     3    14    1
    19     2    10    1
    20    17    14    1
    21    16    14    1
    22    14    15    1
    23    12    10    1
    24    10    13    1
    25    10    11    1
