@<TRIPOS>MOLECULE
1,3,5,7,9
 10 10 0 0 0
SMALL
GASTEIGER

@<TRIPOS>ATOM
      1 C           6.2543    1.4035    9.0341 C.2     1  UNL1       -0.0763
      2 H           5.6078    1.8171    9.7992 H       1  UNL1        0.0578
      3 C           7.6367    1.1365    9.1869 C.3     1  UNL1        0.0054
      4 H           8.2024    1.2821   10.0979 H       1  UNL1        0.0394
      5 C           8.0715    0.4270    8.0514 C.2     1  UNL1       -0.0763
      6 H           9.0514   -0.0099    7.9081 H       1  UNL1        0.0578
      7 C           6.9725    0.2885    7.1802 C.2     1  UNL1       -0.0654
      8 H           6.9644   -0.2866    6.2614 H       1  UNL1        0.0615
      9 C           5.8443    0.8451    7.8168 C.2     1  UNL1       -0.0654
     10 H           4.8240    0.7640    7.4697 H       1  UNL1        0.0615
@<TRIPOS>BOND
     1     8     7    1
     2     7     9    1
     3     7     5    2
     4    10     9    1
     5     9     1    2
     6     6     5    1
     7     5     3    1
     8     1     3    1
     9     1     2    1
    10     3     4    1
