@<TRIPOS>MOLECULE
1,3,5,7,9
 10 10 0 0 0
SMALL
GASTEIGER

@<TRIPOS>ATOM
      1 C           5.5354    2.9912    5.8462 C.2     1  UNL1       -0.0654
      2 H           4.9475    2.2426    5.3319 H       1  UNL1        0.0615
      3 C           6.6481    3.6612    5.3034 C.2     1  UNL1       -0.0654
      4 H           7.0796    3.4930    4.3246 H       1  UNL1        0.0615
      5 C           7.0360    4.6595    6.2110 C.2     1  UNL1       -0.0763
      6 H           7.7951    5.4112    6.0358 H       1  UNL1        0.0578
      7 C           6.1618    4.5989    7.3291 C.3     1  UNL1        0.0054
      8 H           6.1127    5.3246    8.1335 H       1  UNL1        0.0394
      9 C           5.2172    3.5907    7.0770 C.2     1  UNL1       -0.0763
     10 H           4.3449    3.3821    7.6820 H       1  UNL1        0.0578
@<TRIPOS>BOND
     1     4     3    1
     2     3     1    1
     3     3     5    2
     4     2     1    1
     5     1     9    2
     6     6     5    1
     7     5     7    1
     8     9     7    1
     9     9    10    1
    10     7     8    1
