@<TRIPOS>MOLECULE
8,9,10,11,12
 56 58 0 0 0
SMALL
GASTEIGER

@<TRIPOS>ATOM
      1 S          -2.4310    0.4900    9.7892 S.O2    1  UNL1        0.0000
      2 SI         -1.0123    6.6923    9.7845 Si      1  UNL1        0.0000
      3 SI          3.4302    2.8561   10.0667 Si      1  UNL1        0.0000
      4 N          -1.4264    1.6504    9.1425 N.3     1  UNL1        0.0000
      5 O           2.1453    5.8452    9.7004 O.2     1  UNL1        0.0000
      6 O          -3.7686    0.9350    9.5365 O.2     1  UNL1        0.0000
      7 O          -1.9879   -0.7641    9.2592 O.2     1  UNL1        0.0000
      8 C           1.6567    3.5014   10.1485 C.3     1  UNL1        0.0000
      9 C          -0.1296    5.0399   10.0334 C.3     1  UNL1        0.0000
     10 C           0.4540    2.8040    9.8771 C.3     1  UNL1        0.0000
     11 C          -0.6241    3.7295    9.8116 C.3     1  UNL1        0.0000
     12 C           1.3558    4.9450    9.9055 C.2     1  UNL1        0.0000
     13 C           0.0075    1.4744    9.3568 C.3     1  UNL1        0.0000
     14 H           0.4994    1.2568    8.3992 H       1  UNL1        0.0000
     15 H           0.1804    0.6303   10.0261 H       1  UNL1        0.0000
     16 C          -1.8284    3.0519    9.2408 C.3     1  UNL1        0.0000
     17 H          -2.7449    3.1286    9.8255 H       1  UNL1        0.0000
     18 H          -2.0373    3.4413    8.2347 H       1  UNL1        0.0000
     19 C          -0.3776    7.8629   11.1441 C.3     1  UNL1        0.0000
     20 H           0.7045    7.9372   11.0990 H       1  UNL1        0.0000
     21 H          -0.6437    7.5003   12.1341 H       1  UNL1        0.0000
     22 H          -0.7831    8.8640   11.0379 H       1  UNL1        0.0000
     23 C          -0.5666    7.3075    8.0372 C.3     1  UNL1        0.0000
     24 H          -0.9755    8.2960    7.8523 H       1  UNL1        0.0000
     25 H          -0.9452    6.6432    7.2653 H       1  UNL1        0.0000
     26 H           0.5117    7.3659    7.9261 H       1  UNL1        0.0000
     27 C          -2.8872    6.4016    9.9690 C.3     1  UNL1        0.0000
     28 H          -3.1255    5.9326   10.9185 H       1  UNL1        0.0000
     29 H          -3.2803    5.7691    9.1799 H       1  UNL1        0.0000
     30 H          -3.4234    7.3434    9.9284 H       1  UNL1        0.0000
     31 C           4.4290    3.7907   11.3890 C.3     1  UNL1        0.0000
     32 H           5.4844    3.5409   11.3492 H       1  UNL1        0.0000
     33 H           4.0715    3.5632   12.3902 H       1  UNL1        0.0000
     34 H           4.3360    4.8619   11.2396 H       1  UNL1        0.0000
     35 C           4.0685    3.2013    8.3045 C.3     1  UNL1        0.0000
     36 H           3.9898    4.2604    8.0794 H       1  UNL1        0.0000
     37 H           3.5002    2.6587    7.5541 H       1  UNL1        0.0000
     38 H           5.1106    2.9149    8.2007 H       1  UNL1        0.0000
     39 C           3.3941    0.9877   10.4462 C.3     1  UNL1        0.0000
     40 H           4.4020    0.5981   10.5389 H       1  UNL1        0.0000
     41 H           2.8985    0.4245    9.6623 H       1  UNL1        0.0000
     42 H           2.8779    0.7818   11.3789 H       1  UNL1        0.0000
     43 C          -2.1485    0.4742   11.5577 C.ar    1  UNL1        0.0000
     44 C          -1.7795    0.3816   14.3035 C.ar    1  UNL1        0.0000
     45 C          -1.3015   -0.4745   12.1003 C.ar    1  UNL1        0.0000
     46 H          -0.8232   -1.1841   11.4433 H       1  UNL1        0.0000
     47 C          -2.8248    1.3657   12.3661 C.ar    1  UNL1        0.0000
     48 H          -3.5173    2.0623   11.9212 H       1  UNL1        0.0000
     49 C          -1.1187   -0.5174   13.4697 C.ar    1  UNL1        0.0000
     50 H          -0.4604   -1.2562   13.9018 H       1  UNL1        0.0000
     51 C          -2.6372    1.3173   13.7372 C.ar    1  UNL1        0.0000
     52 H          -3.1705    2.0078   14.3734 H       1  UNL1        0.0000
     53 C          -1.5577    0.3319   15.7820 C.3     1  UNL1        0.0000
     54 H          -0.5270    0.6014   16.0097 H       1  UNL1        0.0000
     55 H          -1.7287   -0.6743   16.1603 H       1  UNL1        0.0000
     56 H          -2.2186    1.0205   16.3010 H       1  UNL1        0.0000
@<TRIPOS>BOND
     1    25    23    1
     2    37    35    1
     3    24    23    1
     4    26    23    1
     5    23     2    1
     6    36    35    1
     7    38    35    1
     8    18    16    1
     9    35     3    1
    10    14    13    1
    11     4    16    1
    12     4    13    1
    13     4     1    1
    14    29    27    1
    15    16    11    1
    16    16    17    1
    17     7     1    2
    18    13    10    1
    19    13    15    1
    20     6     1    2
    21    41    39    1
    22     5    12    2
    23     2    27    1
    24     2     9    1
    25     2    19    1
    26     1    43    1
    27    11    10    1
    28    11     9    1
    29    10     8    1
    30    12     9    1
    31    12     8    1
    32    30    27    1
    33    27    28    1
    34     3     8    1
    35     3    39    1
    36     3    31    1
    37    39    40    1
    38    39    42    1
    39    22    19    1
    40    20    19    1
    41    19    21    1
    42    34    31    1
    43    32    31    1
    44    31    33    1
    45    46    45    1
    46    43    45   ar
    47    43    47   ar
    48    48    47    1
    49    45    49   ar
    50    47    51   ar
    51    49    50    1
    52    49    44   ar
    53    51    44   ar
    54    51    52    1
    55    44    53    1
    56    53    54    1
    57    53    55    1
    58    53    56    1
