@<TRIPOS>MOLECULE
5,6,7,8,9
 74 76 0 0 0
SMALL
GASTEIGER

@<TRIPOS>ATOM
      1 SI          5.6894    4.0486    3.2426 Si      1  UNL1        0.0000
      2 S          -0.3511    3.5384    4.9816 S.O2    1  UNL1        0.0000
      3 SI          3.5508   -1.3888    4.1370 Si      1  UNL1        0.0000
      4 N           1.1763    2.9539    5.2912 N.3     1  UNL1        0.0000
      5 C           4.8573    1.2295    3.6536 C.2     1  UNL1        0.0000
      6 C           2.6330    1.4385    4.2953 C.3     1  UNL1        0.0000
      7 C           4.4399    2.6547    3.5023 C.3     1  UNL1        0.0000
      8 C           3.1523    2.7462    4.0852 C.3     1  UNL1        0.0000
      9 C           3.5830    0.4808    3.8583 C.3     1  UNL1        0.0000
     10 C           2.2996    3.7460    4.8000 C.3     1  UNL1        0.0000
     11 H           2.8471    4.1733    5.6505 H       1  UNL1        0.0000
     12 H           1.9313    4.5681    4.1844 H       1  UNL1        0.0000
     13 C           1.4179    1.5192    5.1623 C.3     1  UNL1        0.0000
     14 H           0.5219    1.0311    4.7795 H       1  UNL1        0.0000
     15 H           1.6343    1.0989    6.1538 H       1  UNL1        0.0000
     16 O           5.9824    0.7742    3.5739 O.2     1  UNL1        0.0000
     17 O          -1.2631    2.5426    5.4590 O.2     1  UNL1        0.0000
     18 O          -0.3925    4.8607    5.5291 O.2     1  UNL1        0.0000
     19 C           4.4837   -1.8013    5.7822 C.3     1  UNL1        0.0000
     20 C           1.7157   -1.9005    4.2393 C.3     1  UNL1        0.0000
     21 H           1.1575   -1.5125    3.3935 H       1  UNL1        0.0000
     22 H           1.2368   -1.5397    5.1435 H       1  UNL1        0.0000
     23 H           1.6171   -2.9801    4.2251 H       1  UNL1        0.0000
     24 C           4.3642   -2.1829    2.6101 C.3     1  UNL1        0.0000
     25 H           4.4782   -3.2566    2.7190 H       1  UNL1        0.0000
     26 H           5.3483   -1.7577    2.4409 H       1  UNL1        0.0000
     27 H           3.7673   -2.0021    1.7200 H       1  UNL1        0.0000
     28 C           5.9930   -1.8643    5.5385 C.3     1  UNL1        0.0000
     29 H           6.3539   -0.9405    5.0956 H       1  UNL1        0.0000
     30 H           6.2393   -2.6818    4.8658 H       1  UNL1        0.0000
     31 H           6.5201   -2.0262    6.4782 H       1  UNL1        0.0000
     32 C           4.0181   -3.1568    6.3195 C.3     1  UNL1        0.0000
     33 H           4.5703   -3.4124    7.2231 H       1  UNL1        0.0000
     34 H           4.1878   -3.9420    5.5865 H       1  UNL1        0.0000
     35 H           2.9588   -3.1391    6.5629 H       1  UNL1        0.0000
     36 C           4.2014   -0.7307    6.8404 C.3     1  UNL1        0.0000
     37 H           3.1360   -0.6605    7.0520 H       1  UNL1        0.0000
     38 H           4.5546    0.2428    6.5066 H       1  UNL1        0.0000
     39 H           4.7143   -0.9757    7.7699 H       1  UNL1        0.0000
     40 C           6.8459    4.1612    4.7908 C.3     1  UNL1        0.0000
     41 C           4.6807    5.6525    3.0139 C.3     1  UNL1        0.0000
     42 H           5.3180    6.4609    2.6735 H       1  UNL1        0.0000
     43 H           4.2062    5.9753    3.9345 H       1  UNL1        0.0000
     44 H           3.9013    5.5172    2.2708 H       1  UNL1        0.0000
     45 C           6.6393    3.6484    1.6423 C.3     1  UNL1        0.0000
     46 H           5.9751    3.6829    0.7828 H       1  UNL1        0.0000
     47 H           7.0643    2.6511    1.6930 H       1  UNL1        0.0000
     48 H           7.4493    4.3477    1.4621 H       1  UNL1        0.0000
     49 C           6.0558    3.8750    6.0712 C.3     1  UNL1        0.0000
     50 H           5.6442    2.8681    6.0522 H       1  UNL1        0.0000
     51 H           5.2380    4.5828    6.1942 H       1  UNL1        0.0000
     52 H           6.7067    3.9575    6.9409 H       1  UNL1        0.0000
     53 C           7.9838    3.1442    4.6796 C.3     1  UNL1        0.0000
     54 H           8.5924    3.1600    5.5831 H       1  UNL1        0.0000
     55 H           8.6257    3.3767    3.8338 H       1  UNL1        0.0000
     56 H           7.5942    2.1394    4.5440 H       1  UNL1        0.0000
     57 C           7.4504    5.5640    4.8894 C.3     1  UNL1        0.0000
     58 H           6.6772    6.3153    5.0287 H       1  UNL1        0.0000
     59 H           8.0075    5.8093    3.9883 H       1  UNL1        0.0000
     60 H           8.1343    5.6191    5.7355 H       1  UNL1        0.0000
     61 C          -0.9061    3.9193    0.4687 C.ar    1  UNL1        0.0000
     62 C          -0.5214    3.6735    3.2032 C.ar    1  UNL1        0.0000
     63 C          -0.8942    2.5657    2.4657 C.ar    1  UNL1        0.0000
     64 H          -1.0679    1.6288    2.9703 H       1  UNL1        0.0000
     65 C          -0.3499    4.9030    2.5979 C.ar    1  UNL1        0.0000
     66 H          -0.0991    5.7560    3.2093 H       1  UNL1        0.0000
     67 C          -0.5406    5.0224    1.2320 C.ar    1  UNL1        0.0000
     68 H          -0.4094    5.9825    0.7556 H       1  UNL1        0.0000
     69 C          -1.1238    4.0376   -1.0068 C.3     1  UNL1        0.0000
     70 H          -0.8417    5.0232   -1.3660 H       1  UNL1        0.0000
     71 H          -2.1729    3.8674   -1.2458 H       1  UNL1        0.0000
     72 H          -0.5371    3.2890   -1.5364 H       1  UNL1        0.0000
     73 C          -1.0847    2.6919    1.1020 C.ar    1  UNL1        0.0000
     74 H          -1.3847    1.8330    0.5202 H       1  UNL1        0.0000
@<TRIPOS>BOND
     1    72    69    1
     2    70    69    1
     3    71    69    1
     4    69    61    1
     5    61    73   ar
     6    61    67   ar
     7    74    73    1
     8    68    67    1
     9    46    45    1
    10    73    63   ar
    11    67    65   ar
    12    48    45    1
    13    45    47    1
    14    45     1    1
    15    27    24    1
    16    44    41    1
    17    26    24    1
    18    63    64    1
    19    63    62   ar
    20    65    62   ar
    21    65    66    1
    22    24    25    1
    23    24     3    1
    24    42    41    1
    25    41     1    1
    26    41    43    1
    27    62     2    1
    28     1     7    1
    29     1    40    1
    30    21    20    1
    31     7     5    1
    32     7     8    1
    33    16     5    2
    34     5     9    1
    35    55    53    1
    36     9     3    1
    37     9     6    1
    38    59    57    1
    39     8     6    1
    40     8    10    1
    41     3    20    1
    42     3    19    1
    43    12    10    1
    44    23    20    1
    45    20    22    1
    46     6    13    1
    47    56    53    1
    48    53    40    1
    49    53    54    1
    50    14    13    1
    51    40    57    1
    52    40    49    1
    53    10     4    1
    54    10    11    1
    55    30    28    1
    56    57    58    1
    57    57    60    1
    58     2     4    1
    59     2    17    2
    60     2    18    2
    61    29    28    1
    62    13     4    1
    63    13    15    1
    64    28    19    1
    65    28    31    1
    66    34    32    1
    67    19    32    1
    68    19    36    1
    69    50    49    1
    70    49    51    1
    71    49    52    1
    72    32    35    1
    73    32    33    1
    74    38    36    1
    75    36    37    1
    76    36    39    1
