@<TRIPOS>MOLECULE
4,5,6,7,8
 92 94 0 0 0
SMALL
GASTEIGER

@<TRIPOS>ATOM
      1 S           1.2470   -1.1049    8.5358 S.O2    1  UNL1        0.0000
      2 SI          4.0717    1.0970    3.0893 Si      1  UNL1        0.0000
      3 SI          1.6016    5.1551    6.5475 Si      1  UNL1        0.0000
      4 C           2.9136    1.7558    4.4383 C.3     1  UNL1        0.0000
      5 C           1.9119    3.4158    5.8578 C.2     1  UNL1        0.0000
      6 C           1.8595    2.1567    6.4793 C.2     1  UNL1        0.0000
      7 C           2.4587    1.1619    5.6303 C.3     1  UNL1        0.0000
      8 C           2.7603    3.2290    4.6406 C.2     1  UNL1        0.0000
      9 C           2.5172   -0.1291    6.3885 C.3     1  UNL1        0.0000
     10 H           2.2509   -1.0208    5.8209 H       1  UNL1        0.0000
     11 H           3.5114   -0.2841    6.8346 H       1  UNL1        0.0000
     12 C           1.5308    1.5167    7.7942 C.3     1  UNL1        0.0000
     13 H           2.3207    1.7277    8.5312 H       1  UNL1        0.0000
     14 H           0.5711    1.7822    8.2335 H       1  UNL1        0.0000
     15 C           3.2232    1.2594    1.3643 C.3     1  UNL1        0.0000
     16 H           3.8951    0.8319    0.6128 H       1  UNL1        0.0000
     17 C           1.9118    0.4808    1.2945 C.3     1  UNL1        0.0000
     18 H           1.1912    0.8889    2.0043 H       1  UNL1        0.0000
     19 H           2.0574   -0.5698    1.5312 H       1  UNL1        0.0000
     20 H           1.4795    0.5494    0.2973 H       1  UNL1        0.0000
     21 C           2.9802    2.7166    0.9811 C.3     1  UNL1        0.0000
     22 H           2.4221    2.7791    0.0478 H       1  UNL1        0.0000
     23 H           3.9201    3.2447    0.8523 H       1  UNL1        0.0000
     24 H           2.4152    3.2307    1.7538 H       1  UNL1        0.0000
     25 C           5.6317    2.2318    3.1268 C.3     1  UNL1        0.0000
     26 H           5.2828    3.2254    2.8319 H       1  UNL1        0.0000
     27 C           6.2446    2.3859    4.5183 C.3     1  UNL1        0.0000
     28 H           6.6850    1.4556    4.8652 H       1  UNL1        0.0000
     29 H           5.4907    2.6998    5.2355 H       1  UNL1        0.0000
     30 H           7.0271    3.1430    4.4998 H       1  UNL1        0.0000
     31 C           6.7033    1.7980    2.1281 C.3     1  UNL1        0.0000
     32 H           7.5116    2.5272    2.1006 H       1  UNL1        0.0000
     33 H           6.2914    1.7097    1.1261 H       1  UNL1        0.0000
     34 H           7.1299    0.8382    2.4104 H       1  UNL1        0.0000
     35 C           5.4140   -1.0266    4.5322 C.3     1  UNL1        0.0000
     36 H           5.4243   -2.0790    4.8134 H       1  UNL1        0.0000
     37 H           5.1866   -0.4402    5.4171 H       1  UNL1        0.0000
     38 H           6.4134   -0.7637    4.1950 H       1  UNL1        0.0000
     39 C           4.4011   -0.7781    3.4164 C.3     1  UNL1        0.0000
     40 H           3.4505   -1.2268    3.7261 H       1  UNL1        0.0000
     41 C           4.8670   -1.5178    2.1632 C.3     1  UNL1        0.0000
     42 H           5.7945   -1.0933    1.7887 H       1  UNL1        0.0000
     43 H           4.1267   -1.4662    1.3711 H       1  UNL1        0.0000
     44 H           5.0453   -2.5681    2.3913 H       1  UNL1        0.0000
     45 C           3.2756    6.0999    6.3797 C.3     1  UNL1        0.0000
     46 H           3.4680    6.1767    5.3060 H       1  UNL1        0.0000
     47 C           0.2715    6.0460    5.4710 C.3     1  UNL1        0.0000
     48 H           0.0748    7.0273    5.9150 H       1  UNL1        0.0000
     49 C           0.9116    4.9986    8.3437 C.3     1  UNL1        0.0000
     50 H           0.1975    4.1680    8.3485 H       1  UNL1        0.0000
     51 C           3.2120    7.5177    6.9452 C.3     1  UNL1        0.0000
     52 H           3.0844    7.4985    8.0251 H       1  UNL1        0.0000
     53 H           2.3861    8.0752    6.5112 H       1  UNL1        0.0000
     54 H           4.1352    8.0529    6.7278 H       1  UNL1        0.0000
     55 C          -1.0514    5.2843    5.4515 C.3     1  UNL1        0.0000
     56 H          -1.7976    5.8291    4.8751 H       1  UNL1        0.0000
     57 H          -1.4398    5.1333    6.4551 H       1  UNL1        0.0000
     58 H          -0.9173    4.3045    4.9906 H       1  UNL1        0.0000
     59 C           4.4657    5.3506    6.9778 C.3     1  UNL1        0.0000
     60 H           5.3927    5.8681    6.7352 H       1  UNL1        0.0000
     61 H           4.5269    4.3445    6.5713 H       1  UNL1        0.0000
     62 H           4.3918    5.2826    8.0593 H       1  UNL1        0.0000
     63 C           1.9896    4.6831    9.3789 C.3     1  UNL1        0.0000
     64 H           2.6167    5.5556    9.5442 H       1  UNL1        0.0000
     65 H           2.6233    3.8619    9.0579 H       1  UNL1        0.0000
     66 H           1.5370    4.4128   10.3320 H       1  UNL1        0.0000
     67 C           0.1567    6.2493    8.7914 C.3     1  UNL1        0.0000
     68 H          -0.2157    6.1193    9.8068 H       1  UNL1        0.0000
     69 H          -0.6911    6.4559    8.1458 H       1  UNL1        0.0000
     70 H           0.8100    7.1176    8.7817 H       1  UNL1        0.0000
     71 C           0.7559    6.2813    4.0430 C.3     1  UNL1        0.0000
     72 H           1.0858    5.3514    3.5880 H       1  UNL1        0.0000
     73 H           1.5935    6.9722    4.0279 H       1  UNL1        0.0000
     74 H          -0.0428    6.6989    3.4314 H       1  UNL1        0.0000
     75 C           0.1610   -2.0945    7.5313 C.ar    1  UNL1        0.0000
     76 C          -1.1220   -1.6342    7.3066 C.ar    1  UNL1        0.0000
     77 H          -1.4570   -0.7502    7.8249 H       1  UNL1        0.0000
     78 C           0.6380   -3.2226    6.8962 C.ar    1  UNL1        0.0000
     79 H           1.6451   -3.5502    7.1024 H       1  UNL1        0.0000
     80 C          -1.9427   -2.3217    6.4326 C.ar    1  UNL1        0.0000
     81 H          -2.9472   -1.9701    6.2490 H       1  UNL1        0.0000
     82 C          -1.4842   -3.4620    5.7766 C.ar    1  UNL1        0.0000
     83 C          -0.1895   -3.9065    6.0217 C.ar    1  UNL1        0.0000
     84 H           0.1748   -4.7911    5.5202 H       1  UNL1        0.0000
     85 C          -2.3683   -4.1777    4.8042 C.3     1  UNL1        0.0000
     86 H          -2.3584   -3.6548    3.8478 H       1  UNL1        0.0000
     87 H          -3.3955   -4.2020    5.1604 H       1  UNL1        0.0000
     88 H          -2.0253   -5.1956    4.6391 H       1  UNL1        0.0000
     89 N           1.5184    0.1085    7.4195 N.3     1  UNL1        0.0000
     90 O           2.4651   -1.8195    8.7970 O.2     1  UNL1        0.0000
     91 O           0.5391   -0.5098    9.6288 O.2     1  UNL1        0.0000
     92 O           3.2116    4.1087    3.9301 O.2     1  UNL1        0.0000
@<TRIPOS>BOND
     1    22    21    1
     2    20    17    1
     3    16    15    1
     4    23    21    1
     5    21    15    1
     6    21    24    1
     7    33    31    1
     8    17    15    1
     9    17    19    1
    10    17    18    1
    11    15     2    1
    12    43    41    1
    13    42    41    1
    14    32    31    1
    15    31    34    1
    16    31    25    1
    17    41    44    1
    18    41    39    1
    19    26    25    1
    20     2    25    1
    21     2    39    1
    22     2     4    1
    23    25    27    1
    24    39    40    1
    25    39    35    1
    26    74    71    1
    27    72    71    1
    28    86    85    1
    29    92     8    2
    30    73    71    1
    31    71    47    1
    32    38    35    1
    33     4     8    1
    34     4     7    1
    35    30    27    1
    36    27    28    1
    37    27    29    1
    38    35    36    1
    39    35    37    1
    40    88    85    1
    41     8     5    1
    42    85    87    1
    43    85    82    1
    44    56    55    1
    45    58    55    1
    46    46    45    1
    47    55    47    1
    48    55    57    1
    49    47    48    1
    50    47     3    1
    51    84    83    1
    52     7     9    1
    53     7     6    1
    54    82    83   ar
    55    82    80   ar
    56    10     9    1
    57     5     6    2
    58     5     3    1
    59    83    78   ar
    60    81    80    1
    61    45     3    1
    62    45    51    1
    63    45    59    1
    64     9    11    1
    65     9    89    1
    66    80    76   ar
    67     6    12    1
    68    53    51    1
    69     3    49    1
    70    61    59    1
    71    54    51    1
    72    60    59    1
    73    78    79    1
    74    78    75   ar
    75    51    52    1
    76    59    62    1
    77    76    75   ar
    78    76    77    1
    79    89    12    1
    80    89     1    1
    81    75     1    1
    82    12    14    1
    83    12    13    1
    84    69    67    1
    85    49    50    1
    86    49    67    1
    87    49    63    1
    88     1    90    2
    89     1    91    2
    90    70    67    1
    91    67    68    1
    92    65    63    1
    93    63    64    1
    94    63    66    1
