@<TRIPOS>MOLECULE
2,3,4,25,26
 41 42 0 0 0
SMALL
GASTEIGER

@<TRIPOS>ATOM
      1 SI          1.2567   11.8221    5.9337 Si      1  UNL1        0.0000
      2 C           2.2129   14.0341    4.1442 C.3     1  UNL1        0.0000
      3 C           1.4364   13.5654    5.2316 C.3     1  UNL1        0.0000
      4 C           1.2036   14.7477    6.1115 C.2     1  UNL1        0.0000
      5 C           3.1968   13.5156    3.1421 C.3     1  UNL1        0.0000
      6 C           3.4287   14.7476    2.2443 C.3     1  UNL1        0.0000
      7 C          -0.5692   11.6017    6.4204 C.3     1  UNL1        0.0000
      8 C           1.7390   10.5571    4.5891 C.3     1  UNL1        0.0000
      9 C           2.4193   11.6925    7.4386 C.3     1  UNL1        0.0000
     10 O           0.8567   14.7477    7.2782 O.2     1  UNL1        0.0000
     11 H           2.8535   12.6500    2.5794 H       1  UNL1        0.0000
     12 H           2.6812   14.7475    1.4483 H       1  UNL1        0.0000
     13 H           2.7927   10.6134    4.3358 H       1  UNL1        0.0000
     14 H           2.2929   10.7444    7.9522 H       1  UNL1        0.0000
     15 H          -0.7499   10.6406    6.8912 H       1  UNL1        0.0000
     16 H           4.1165   13.2390    3.6667 H       1  UNL1        0.0000
     17 H           4.4178   14.7477    1.7898 H       1  UNL1        0.0000
     18 H          -1.2208   11.6755    5.5531 H       1  UNL1        0.0000
     19 H           2.2002   12.4873    8.1444 H       1  UNL1        0.0000
     20 H           1.1682   10.7067    3.6780 H       1  UNL1        0.0000
     21 H          -0.8637   12.3757    7.1221 H       1  UNL1        0.0000
     22 H           3.4644   11.7786    7.1544 H       1  UNL1        0.0000
     23 H           1.5417    9.5479    4.9342 H       1  UNL1        0.0000
     24 SI          1.2568   17.6732    5.9337 Si      1  UNL1        0.0000
     25 C           2.2128   15.4612    4.1441 C.3     1  UNL1        0.0000
     26 C           1.4365   15.9299    5.2317 C.3     1  UNL1        0.0000
     27 C           3.1966   15.9797    3.1420 C.3     1  UNL1        0.0000
     28 C          -0.5690   17.8939    6.4204 C.3     1  UNL1        0.0000
     29 C           1.7396   18.9382    4.5892 C.3     1  UNL1        0.0000
     30 C           2.4191   17.8026    7.4388 C.3     1  UNL1        0.0000
     31 H           2.8533   16.8453    2.5793 H       1  UNL1        0.0000
     32 H           2.7934   18.8817    4.3362 H       1  UNL1        0.0000
     33 H           2.2926   18.7507    7.9524 H       1  UNL1        0.0000
     34 H          -0.7495   18.8551    6.8912 H       1  UNL1        0.0000
     35 H           4.1163   16.2564    3.6667 H       1  UNL1        0.0000
     36 H          -1.2207   17.8203    5.5531 H       1  UNL1        0.0000
     37 H           2.1999   17.0077    8.1445 H       1  UNL1        0.0000
     38 H           1.1690   18.7885    3.6779 H       1  UNL1        0.0000
     39 H          -0.8637   17.1200    7.1222 H       1  UNL1        0.0000
     40 H           3.4643   17.7164    7.1548 H       1  UNL1        0.0000
     41 H           1.5422   19.9473    4.9342 H       1  UNL1        0.0000
@<TRIPOS>BOND
     1    12     6    1
     2    17     6    1
     3     6    27    1
     4     6     5    1
     5    31    27    1
     6    11     5    1
     7    27    35    1
     8    27    25    1
     9     5    16    1
    10     5     2    1
    11    38    29    1
    12    20     8    1
    13    25     2    1
    14    25    26    1
    15     2     3    1
    16    13     8    1
    17    32    29    1
    18     8    23    1
    19     8     1    1
    20    29    41    1
    21    29    24    1
    22     3     1    1
    23     3     4    1
    24    26    24    1
    25    26     4    1
    26    18     7    1
    27    36    28    1
    28     1     7    1
    29     1     9    1
    30    24    28    1
    31    24    30    1
    32     4    10    2
    33     7    15    1
    34     7    21    1
    35    28    34    1
    36    28    39    1
    37    22     9    1
    38    40    30    1
    39     9    14    1
    40     9    19    1
    41    30    33    1
    42    30    37    1
