@<TRIPOS>MOLECULE
8,32,33,46,47
 59 60 0 0 0
SMALL
GASTEIGER

@<TRIPOS>ATOM
      1 SI         10.1214    6.6972   10.9625 Si      1  UNL1        0.0000
      2 SI         14.7399   10.2728   10.5237 Si      1  UNL1        0.0000
      3 O          15.5545    3.0914   12.2921 O.3     1  UNL1        0.0000
      4 O          16.3686    4.8899   13.3654 O.2     1  UNL1        0.0000
      5 O          14.6854    4.3556    9.1059 O.2     1  UNL1        0.0000
      6 O          16.7794    4.4388    9.9060 O.3     1  UNL1        0.0000
      7 O          11.5735    9.6081   10.9125 O.2     1  UNL1        0.0000
      8 C          14.2291    7.3470   10.8734 C.3     1  UNL1        0.0000
      9 C          15.4757    6.6738   11.3457 C.3     1  UNL1        0.0000
     10 H          15.7031    6.9780   12.3729 H       1  UNL1        0.0000
     11 H          16.3590    6.8594   10.7365 H       1  UNL1        0.0000
     12 C          15.0719    5.1768   11.3449 C.3     1  UNL1        0.0000
     13 C          15.7620    4.3951   12.4550 C.2     1  UNL1        0.0000
     14 C          16.1498    2.2064   13.2471 C.3     1  UNL1        0.0000
     15 H          16.1598    2.6978   14.2251 H       1  UNL1        0.0000
     16 H          15.4962    1.3322   13.2735 H       1  UNL1        0.0000
     17 C          17.5619    1.8267   12.8293 C.3     1  UNL1        0.0000
     18 H          17.5478    1.3454   11.8546 H       1  UNL1        0.0000
     19 H          17.9859    1.1411   13.5572 H       1  UNL1        0.0000
     20 H          18.1849    2.7163   12.7764 H       1  UNL1        0.0000
     21 C          15.4643    4.5895    9.9935 C.2     1  UNL1        0.0000
     22 C          17.2992    3.9668    8.6567 C.3     1  UNL1        0.0000
     23 H          16.7253    4.4227    7.8440 H       1  UNL1        0.0000
     24 H          18.3312    4.3217    8.6310 H       1  UNL1        0.0000
     25 C          17.2333    2.4507    8.5666 C.3     1  UNL1        0.0000
     26 H          17.7935    2.0002    9.3824 H       1  UNL1        0.0000
     27 H          17.6589    2.1249    7.6220 H       1  UNL1        0.0000
     28 H          16.1988    2.1206    8.6198 H       1  UNL1        0.0000
     29 C          13.5279    5.1367   11.5023 C.3     1  UNL1        0.0000
     30 H          13.1066    4.2909   10.9617 H       1  UNL1        0.0000
     31 H          13.2504    5.0561   12.5573 H       1  UNL1        0.0000
     32 C          13.1123    6.4725   10.9694 C.3     1  UNL1        0.0000
     33 C          11.9223    7.2064   10.7238 C.3     1  UNL1        0.0000
     34 C          10.0097    4.7929   10.9355 C.3     1  UNL1        0.0000
     35 H          10.4832    4.3459   11.8036 H       1  UNL1        0.0000
     36 H          10.4821    4.3807   10.0496 H       1  UNL1        0.0000
     37 H           8.9730    4.4742   10.9308 H       1  UNL1        0.0000
     38 C           9.1420    7.4430    9.5115 C.3     1  UNL1        0.0000
     39 H           8.0764    7.2566    9.6000 H       1  UNL1        0.0000
     40 H           9.4747    7.0338    8.5607 H       1  UNL1        0.0000
     41 H           9.2898    8.5178    9.4783 H       1  UNL1        0.0000
     42 C           9.5455    7.3913   12.6423 C.3     1  UNL1        0.0000
     43 H           8.4863    7.2126   12.8003 H       1  UNL1        0.0000
     44 H           9.7127    8.4632   12.6760 H       1  UNL1        0.0000
     45 H          10.0843    6.9447   13.4734 H       1  UNL1        0.0000
     46 C          12.3059    8.6458   10.7715 C.2     1  UNL1        0.0000
     47 C          13.7798    8.6490   10.5420 C.3     1  UNL1        0.0000
     48 C          14.0172   11.3485    9.1315 C.3     1  UNL1        0.0000
     49 H          14.4523   12.3429    9.1205 H       1  UNL1        0.0000
     50 H          12.9454   11.4558    9.2642 H       1  UNL1        0.0000
     51 H          14.1872   10.9002    8.1559 H       1  UNL1        0.0000
     52 C          16.5770    9.8903   10.1760 C.3     1  UNL1        0.0000
     53 H          16.6927    9.2642    9.2964 H       1  UNL1        0.0000
     54 H          17.0511    9.3848   11.0110 H       1  UNL1        0.0000
     55 H          17.1278   10.8073    9.9971 H       1  UNL1        0.0000
     56 C          14.5209   11.0797   12.2372 C.3     1  UNL1        0.0000
     57 H          14.9962   12.0551   12.2766 H       1  UNL1        0.0000
     58 H          14.9470   10.4713   13.0301 H       1  UNL1        0.0000
     59 H          13.4653   11.2135   12.4518 H       1  UNL1        0.0000
@<TRIPOS>BOND
     1    27    25    1
     2    23    22    1
     3    51    48    1
     4    40    38    1
     5    25    28    1
     6    25    22    1
     7    25    26    1
     8    24    22    1
     9    22     6    1
    10     5    21    2
    11    49    48    1
    12    48    50    1
    13    48     2    1
    14    53    52    1
    15    41    38    1
    16    38    39    1
    17    38     1    1
    18     6    21    1
    19    21    12    1
    20    55    52    1
    21    36    34    1
    22    52     2    1
    23    52    54    1
    24     2    47    1
    25     2    56    1
    26    47    46    1
    27    47     8    1
    28    33    46    1
    29    33     1    1
    30    33    32    1
    31    11     9    1
    32    46     7    2
    33     8    32    1
    34     8     9    1
    35    37    34    1
    36    34     1    1
    37    34    35    1
    38    30    29    1
    39     1    42    1
    40    32    29    1
    41    12     9    1
    42    12    29    1
    43    12    13    1
    44     9    10    1
    45    29    31    1
    46    18    17    1
    47    56    57    1
    48    56    59    1
    49    56    58    1
    50     3    13    1
    51     3    14    1
    52    13     4    2
    53    42    44    1
    54    42    43    1
    55    42    45    1
    56    20    17    1
    57    17    14    1
    58    17    19    1
    59    14    16    1
    60    14    15    1
