@<TRIPOS>MOLECULE
1,2,3,4,5
 10 10 0 0 0
SMALL
GASTEIGER

@<TRIPOS>ATOM
      1 C          12.9309    1.3621    6.9752 C.2     1  UNL1       -0.0837
      2 C          11.8824    1.7973    6.1463 C.2     1  UNL1       -0.0837
      3 C          12.3095    2.9583    5.4667 C.3     1  UNL1       -0.0127
      4 C          13.6212    3.2609    5.9034 C.3     1  UNL1       -0.0235
      5 C          14.0060    2.2672    6.8334 C.3     1  UNL1       -0.0127
      6 H          12.8917    0.5306    7.6684 H       1  UNL1        0.0572
      7 H          10.8948    1.3579    6.0889 H       1  UNL1        0.0572
      8 H          11.6878    3.5956    4.8504 H       1  UNL1        0.0352
      9 H          14.1626    4.1696    5.6726 H       1  UNL1        0.0315
     10 H          14.9085    2.2654    7.4315 H       1  UNL1        0.0352
@<TRIPOS>BOND
     1     8     3    1
     2     3     4    1
     3     3     2    1
     4     9     4    1
     5     4     5    1
     6     7     2    1
     7     2     1    2
     8     5     1    1
     9     5    10    1
    10     1     6    1
