@<TRIPOS>MOLECULE
1,3,5,7,9
 10 10 0 0 0
SMALL
GASTEIGER

@<TRIPOS>ATOM
      1 C           0.9240    1.5116   -0.7158 C.3     1  UNL1       -0.0127
      2 H           0.4624    0.5339   -0.7893 H       1  UNL1        0.0352
      3 C           1.6930    2.1400   -1.7214 C.3     1  UNL1       -0.0235
      4 H           1.9065    1.7282   -2.7002 H       1  UNL1        0.0315
      5 C           1.9818    3.4549   -1.2886 C.3     1  UNL1       -0.0127
      6 H           2.4255    4.2383   -1.8922 H       1  UNL1        0.0352
      7 C           1.3857    3.6370   -0.0219 C.2     1  UNL1       -0.0837
      8 H           1.3169    4.5769    0.5139 H       1  UNL1        0.0572
      9 C           0.7369    2.4388    0.3332 C.2     1  UNL1       -0.0837
     10 H           0.1043    2.2885    1.1988 H       1  UNL1        0.0572
@<TRIPOS>BOND
     1     4     3    1
     2     6     5    1
     3     3     5    1
     4     3     1    1
     5     5     7    1
     6     2     1    1
     7     1     9    1
     8     7     9    2
     9     7     8    1
    10     9    10    1
