@<TRIPOS>MOLECULE
1,3,5,7,9
 10 10 0 0 0
SMALL
GASTEIGER

@<TRIPOS>ATOM
      1 C           5.3619    1.8823    1.5753 C.2     1  UNL1       -0.0654
      2 H           6.0352    1.0358    1.6361 H       1  UNL1        0.0615
      3 C           5.4572    2.9490    0.6558 C.2     1  UNL1       -0.0763
      4 H           6.2446    3.0751   -0.0764 H       1  UNL1        0.0578
      5 C           4.4710    3.9032    0.9892 C.3     1  UNL1        0.0054
      6 H           4.3742    4.8926    0.5533 H       1  UNL1        0.0394
      7 C           3.7687    3.4261    2.1207 C.2     1  UNL1       -0.0763
      8 H           3.0363    3.9816    2.6961 H       1  UNL1        0.0578
      9 C           4.3276    2.1841    2.4867 C.2     1  UNL1       -0.0654
     10 H           4.0842    1.6159    3.3759 H       1  UNL1        0.0615
@<TRIPOS>BOND
     1     4     3    1
     2     6     5    1
     3     3     5    1
     4     3     1    2
     5     5     7    1
     6     1     2    1
     7     1     9    1
     8     7     9    2
     9     7     8    1
    10     9    10    1
