@<TRIPOS>MOLECULE
1,3,5,7,9
 10 10 0 0 0
SMALL
GASTEIGER

@<TRIPOS>ATOM
      1 C          12.3456   11.8201   16.0622 C.2     1  UNL1       -0.0654
      2 H          12.9194   12.1881   16.9034 H       1  UNL1        0.0615
      3 C          11.7199   12.6357   15.0738 C.2     1  UNL1       -0.0654
      4 H          11.7210   13.7178   15.0615 H       1  UNL1        0.0615
      5 C          11.2788   11.7964   14.0340 C.2     1  UNL1       -0.0763
      6 H          10.8682   12.1252   13.0903 H       1  UNL1        0.0578
      7 C          11.6179   10.4544   14.3632 C.3     1  UNL1        0.0054
      8 H          11.5652    9.6081   13.6940 H       1  UNL1        0.0394
      9 C          12.3024   10.4823   15.6035 C.2     1  UNL1       -0.0763
     10 H          12.8082    9.6442   16.0660 H       1  UNL1        0.0578
@<TRIPOS>BOND
     1     6     5    1
     2     8     7    1
     3     5     7    1
     4     5     3    2
     5     7     9    1
     6     4     3    1
     7     3     1    1
     8     9     1    2
     9     9    10    1
    10     1     2    1
