@<TRIPOS>MOLECULE
1,2,3,4,5
 10 10 0 0 0
SMALL
GASTEIGER

@<TRIPOS>ATOM
      1 C           9.3942    9.5055   20.5851 C.2     1  UNL1       -0.0763
      2 C           9.0884    8.1428   20.7553 C.2     1  UNL1       -0.0654
      3 C           9.2351    7.8343   22.1235 C.2     1  UNL1       -0.0654
      4 C           9.6302    9.0027   22.7865 C.2     1  UNL1       -0.0763
      5 C           9.7294   10.0306   21.8388 C.3     1  UNL1        0.0054
      6 H           9.4304   10.0336   19.6444 H       1  UNL1        0.0578
      7 H           8.8999    7.4288   19.9670 H       1  UNL1        0.0615
      8 H           9.1633    6.8495   22.5570 H       1  UNL1        0.0615
      9 H           9.8705    9.0833   23.8345 H       1  UNL1        0.0578
     10 H          10.0565   11.0394   22.0346 H       1  UNL1        0.0394
@<TRIPOS>BOND
     1     6     1    1
     2     7     2    1
     3     1     2    2
     4     1     5    1
     5     2     3    1
     6     5    10    1
     7     5     4    1
     8     3     8    1
     9     3     4    2
    10     4     9    1
