@<TRIPOS>MOLECULE
1,2,3,4,5
 10 10 0 0 0
SMALL
GASTEIGER

@<TRIPOS>ATOM
      1 C           4.6219    8.8266   24.6683 C.2     1  UNL1       -0.0763
      2 C           4.0632    8.0838   23.6227 C.2     1  UNL1       -0.0654
      3 C           4.9533    7.0351   23.3136 C.2     1  UNL1       -0.0654
      4 C           6.0606    7.1413   24.1795 C.2     1  UNL1       -0.0763
      5 C           5.8526    8.2483   25.0091 C.3     1  UNL1        0.0054
      6 H           4.1636    9.6695   25.1606 H       1  UNL1        0.0578
      7 H           3.0896    8.2388   23.1827 H       1  UNL1        0.0615
      8 H           4.7608    6.2162   22.6359 H       1  UNL1        0.0615
      9 H           6.8729    6.4360   24.2529 H       1  UNL1        0.0578
     10 H           6.5013    8.5683   25.8086 H       1  UNL1        0.0394
@<TRIPOS>BOND
     1     8     3    1
     2     7     2    1
     3     3     2    1
     4     3     4    2
     5     2     1    2
     6     4     9    1
     7     4     5    1
     8     1     5    1
     9     1     6    1
    10     5    10    1
