@<TRIPOS>MOLECULE
1,2,3,4,5
 10 10 0 0 0
SMALL
GASTEIGER

@<TRIPOS>ATOM
      1 C           2.9813    6.1687    0.1750 C.2     1  UNL1       -0.0763
      2 C           2.2117    5.6569   -0.8937 C.3     1  UNL1        0.0054
      3 C           0.9506    5.2884   -0.3752 C.2     1  UNL1       -0.0763
      4 C           0.9456    5.5509    1.0018 C.2     1  UNL1       -0.0654
      5 C           2.1985    6.0993    1.3456 C.2     1  UNL1       -0.0654
      6 H           3.9273    6.6896    0.0854 H       1  UNL1        0.0578
      7 H           2.4725    5.6932   -1.9465 H       1  UNL1        0.0394
      8 H           0.0922    4.9822   -0.9570 H       1  UNL1        0.0578
      9 H           0.0998    5.4367    1.6669 H       1  UNL1        0.0615
     10 H           2.4535    6.5387    2.3007 H       1  UNL1        0.0615
@<TRIPOS>BOND
     1     7     2    1
     2     8     3    1
     3     2     3    1
     4     2     1    1
     5     3     4    2
     6     6     1    1
     7     1     5    2
     8     4     5    1
     9     4     9    1
    10     5    10    1
