@<TRIPOS>MOLECULE
1,2,3,4,5
 10 10 0 0 0
SMALL
GASTEIGER

@<TRIPOS>ATOM
      1 C           4.5230    1.9015   -0.1307 C.2     1  UNL1       -0.0763
      2 C           5.0733    2.6369    0.9350 C.3     1  UNL1        0.0054
      3 C           5.2857    3.9617    0.4884 C.2     1  UNL1       -0.0763
      4 C           4.8918    4.0309   -0.8620 C.2     1  UNL1       -0.0654
      5 C           4.4133    2.7632   -1.2416 C.2     1  UNL1       -0.0654
      6 H           4.3426    0.8339   -0.1284 H       1  UNL1        0.0578
      7 H           5.4131    2.2264    1.8770 H       1  UNL1        0.0394
      8 H           5.8323    4.7239    1.0301 H       1  UNL1        0.0578
      9 H           5.0663    4.8611   -1.5348 H       1  UNL1        0.0615
     10 H           4.1863    2.4682   -2.2583 H       1  UNL1        0.0615
@<TRIPOS>BOND
     1    10     5    1
     2     9     4    1
     3     5     4    1
     4     5     1    2
     5     4     3    2
     6     1     6    1
     7     1     2    1
     8     3     2    1
     9     3     8    1
    10     2     7    1
