@<TRIPOS>MOLECULE
1,2,3,4,5
 10 10 0 0 0
SMALL
GASTEIGER

@<TRIPOS>ATOM
      1 C          -0.2961    5.0235    4.8298 C.3     1  UNL1       -0.0127
      2 C          -0.8324    6.3183    4.9515 C.2     1  UNL1       -0.0837
      3 C          -1.7506    6.3112    6.0298 C.2     1  UNL1       -0.0837
      4 C          -1.7045    5.0305    6.6344 C.3     1  UNL1       -0.0127
      5 C          -0.8290    4.2252    5.8813 C.3     1  UNL1       -0.0235
      6 H           0.4905    4.7272    4.1561 H       1  UNL1        0.0352
      7 H          -0.5679    7.1691    4.3455 H       1  UNL1        0.0572
      8 H          -2.2411    7.1774    6.4410 H       1  UNL1        0.0572
      9 H          -2.2000    4.7464    7.5477 H       1  UNL1        0.0352
     10 H          -0.5056    3.2294    6.1373 H       1  UNL1        0.0315
@<TRIPOS>BOND
     1     6     1    1
     2     7     2    1
     3     1     2    1
     4     1     5    1
     5     2     3    2
     6     5    10    1
     7     5     4    1
     8     3     8    1
     9     3     4    1
    10     4     9    1
