@<TRIPOS>MOLECULE
1,2,3,4,5
 10 10 0 0 0
SMALL
GASTEIGER

@<TRIPOS>ATOM
      1 C           1.7078    3.1923    8.0516 C.2     1  UNL1       -0.0763
      2 C           1.6688    1.9200    7.4406 C.2     1  UNL1       -0.0654
      3 C           0.7830    1.1071    8.1776 C.2     1  UNL1       -0.0654
      4 C           0.2852    1.8703    9.2553 C.2     1  UNL1       -0.0763
      5 C           0.8472    3.1638    9.1744 C.3     1  UNL1        0.0054
      6 H           2.4015    3.9888    7.8068 H       1  UNL1        0.0578
      7 H           2.3180    1.5823    6.6412 H       1  UNL1        0.0615
      8 H           0.6072    0.0494    8.0158 H       1  UNL1        0.0615
      9 H          -0.3331    1.5005   10.0637 H       1  UNL1        0.0578
     10 H           0.7475    3.9417    9.9218 H       1  UNL1        0.0394
@<TRIPOS>BOND
     1     7     2    1
     2     2     1    2
     3     2     3    1
     4     6     1    1
     5     8     3    1
     6     1     5    1
     7     3     4    2
     8     5     4    1
     9     5    10    1
    10     4     9    1
