@<TRIPOS>MOLECULE
1,2,3,4,5
 10 10 0 0 0
SMALL
GASTEIGER

@<TRIPOS>ATOM
      1 C          -0.5213    4.5835    5.2965 C.3     1  UNL1        0.0054
      2 C          -1.6955    3.8208    5.0752 C.2     1  UNL1       -0.0763
      3 C          -1.2996    2.5126    4.7298 C.2     1  UNL1       -0.0654
      4 C           0.1064    2.4515    4.7657 C.2     1  UNL1       -0.0654
      5 C           0.5905    3.7349    5.0986 C.2     1  UNL1       -0.0763
      6 H          -0.4784    5.6590    5.4037 H       1  UNL1        0.0394
      7 H          -2.7106    4.2002    5.0478 H       1  UNL1        0.0578
      8 H          -1.9592    1.7151    4.4118 H       1  UNL1        0.0615
      9 H           0.7042    1.6057    4.4459 H       1  UNL1        0.0615
     10 H           1.6270    4.0510    5.0658 H       1  UNL1        0.0578
@<TRIPOS>BOND
     1     8     3    1
     2     9     4    1
     3     3     4    1
     4     3     2    2
     5     4     5    2
     6     7     2    1
     7    10     5    1
     8     2     1    1
     9     5     1    1
    10     1     6    1
