@<TRIPOS>MOLECULE
1,3,5,7,9
 10 10 0 0 0
SMALL
GASTEIGER

@<TRIPOS>ATOM
      1 C           1.6688    4.9351    4.2455 C.2     1  UNL1       -0.0837
      2 H           2.2001    5.3298    5.1016 H       1  UNL1        0.0572
      3 C           1.1377    5.7081    3.1811 C.2     1  UNL1       -0.0837
      4 H           1.2000    6.7835    3.1025 H       1  UNL1        0.0572
      5 C           0.3793    4.8450    2.3562 C.3     1  UNL1       -0.0127
      6 H          -0.2253    5.1482    1.5110 H       1  UNL1        0.0352
      7 C           0.4057    3.5479    2.9212 C.3     1  UNL1       -0.0235
      8 H          -0.2168    2.7217    2.6068 H       1  UNL1        0.0315
      9 C           1.1982    3.6054    4.0972 C.3     1  UNL1       -0.0127
     10 H           1.3057    2.8226    4.8363 H       1  UNL1        0.0352
@<TRIPOS>BOND
     1     6     5    1
     2     5     7    1
     3     5     3    1
     4     8     7    1
     5     7     9    1
     6     4     3    1
     7     3     1    2
     8     9     1    1
     9     9    10    1
    10     1     2    1
