@<TRIPOS>MOLECULE
1,3,5,7,9
 10 10 0 0 0
SMALL
GASTEIGER

@<TRIPOS>ATOM
      1 C           5.3147    2.7467    3.7366 C.2     1  UNL1       -0.0763
      2 H           5.6497    3.7649    3.8666 H       1  UNL1        0.0578
      3 C           5.1777    2.0888    2.4861 C.2     1  UNL1       -0.0654
      4 H           5.3985    2.5071    1.5180 H       1  UNL1        0.0615
      5 C           4.6103    0.8364    2.7440 C.2     1  UNL1       -0.0654
      6 H           4.2743    0.1224    2.0071 H       1  UNL1        0.0615
      7 C           4.3002    0.7609    4.1464 C.2     1  UNL1       -0.0763
      8 H           3.7260   -0.0311    4.6030 H       1  UNL1        0.0578
      9 C           4.6913    1.9590    4.7420 C.3     1  UNL1        0.0054
     10 H           4.5342    2.2541    5.7660 H       1  UNL1        0.0394
@<TRIPOS>BOND
     1     4     3    1
     2     6     5    1
     3     3     5    1
     4     3     1    2
     5     5     7    2
     6     1     2    1
     7     1     9    1
     8     7     8    1
     9     7     9    1
    10     9    10    1
