@<TRIPOS>MOLECULE
1,2,3,4,5
 25 25 0 0 0
SMALL
GASTEIGER

@<TRIPOS>ATOM
      1 C          -0.6660    3.0062    1.5680 C.2     1  UNL1       -0.0584
      2 C          -1.0518    3.7816    2.7010 C.2     1  UNL1       -0.0477
      3 C           0.1168    4.0422    3.4691 C.2     1  UNL1       -0.0477
      4 C           1.2434    3.5020    2.7659 C.2     1  UNL1       -0.0584
      5 C           0.7618    2.8702    1.5885 C.3     1  UNL1        0.0231
      6 C          -1.5220    2.6723    0.3845 C.3     1  UNL1       -0.0424
      7 C          -2.3851    4.4071    2.9440 C.3     1  UNL1       -0.0395
      8 C           0.2024    5.0052    4.6107 C.3     1  UNL1       -0.0395
      9 C           2.6784    3.7500    3.1114 C.3     1  UNL1       -0.0424
     10 C           1.5962    2.3338    0.4676 C.3     1  UNL1       -0.0510
     11 H          -2.5768    2.6725    0.6452 H       1  UNL1        0.0275
     12 H          -1.3677    3.4100   -0.4053 H       1  UNL1        0.0275
     13 H          -1.2715    1.6921   -0.0147 H       1  UNL1        0.0275
     14 H          -2.3321    5.4718    2.7079 H       1  UNL1        0.0278
     15 H          -3.1489    3.9610    2.3134 H       1  UNL1        0.0278
     16 H          -2.6865    4.3086    3.9831 H       1  UNL1        0.0278
     17 H           0.9655    4.7056    5.3245 H       1  UNL1        0.0278
     18 H           0.4615    5.9970    4.2337 H       1  UNL1        0.0278
     19 H          -0.7450    5.0753    5.1365 H       1  UNL1        0.0278
     20 H           3.3139    2.9488    2.7426 H       1  UNL1        0.0275
     21 H           3.0122    4.6864    2.6604 H       1  UNL1        0.0275
     22 H           2.8107    3.8259    4.1877 H       1  UNL1        0.0275
     23 H           1.0752    1.5401   -0.0616 H       1  UNL1        0.0242
     24 H           1.8162    3.1310   -0.2450 H       1  UNL1        0.0242
     25 H           2.5388    1.9379    0.8368 H       1  UNL1        0.0242
@<TRIPOS>BOND
     1    12     6    1
     2    24    10    1
     3    23    10    1
     4    13     6    1
     5     6    11    1
     6     6     1    1
     7    10    25    1
     8    10     5    1
     9     1     5    1
    10     1     2    2
    11     5     4    1
    12    15     7    1
    13    21     9    1
    14     2     7    1
    15     2     3    1
    16    14     7    1
    17    20     9    1
    18     4     9    1
    19     4     3    2
    20     7    16    1
    21     9    22    1
    22     3     8    1
    23    18     8    1
    24     8    19    1
    25     8    17    1
