@<TRIPOS>MOLECULE
1,2,3,4,5
 25 25 0 0 0
SMALL
GASTEIGER

@<TRIPOS>ATOM
      1 C          -4.9955    3.3847   -2.2124 C.2     1  UNL1       -0.0584
      2 C          -4.0041    4.4006   -2.1823 C.3     1  UNL1        0.0231
      3 C          -3.1060    4.1086   -1.1004 C.2     1  UNL1       -0.0584
      4 C          -3.5766    2.9409   -0.4426 C.2     1  UNL1       -0.0477
      5 C          -4.7068    2.4555   -1.1594 C.2     1  UNL1       -0.0477
      6 C          -6.2314    3.3820   -3.0570 C.3     1  UNL1       -0.0424
      7 C          -4.0112    5.6635   -2.9865 C.3     1  UNL1       -0.0510
      8 C          -2.0348    5.0270   -0.5982 C.3     1  UNL1       -0.0424
      9 C          -3.0585    2.3809    0.8424 C.3     1  UNL1       -0.0395
     10 C          -5.6018    1.3410   -0.7132 C.3     1  UNL1       -0.0395
     11 H          -7.0336    3.9113   -2.5395 H       1  UNL1        0.0275
     12 H          -6.0561    3.8759   -4.0093 H       1  UNL1        0.0275
     13 H          -6.5672    2.3675   -3.2555 H       1  UNL1        0.0275
     14 H          -3.0000    6.0236   -3.1583 H       1  UNL1        0.0242
     15 H          -4.4861    5.5083   -3.9518 H       1  UNL1        0.0242
     16 H          -4.5635    6.4403   -2.4542 H       1  UNL1        0.0242
     17 H          -1.2423    4.4712   -0.1030 H       1  UNL1        0.0275
     18 H          -1.5935    5.5918   -1.4153 H       1  UNL1        0.0275
     19 H          -2.4539    5.7353    0.1190 H       1  UNL1        0.0275
     20 H          -3.1042    1.2943    0.8465 H       1  UNL1        0.0278
     21 H          -2.0289    2.6824    1.0166 H       1  UNL1        0.0278
     22 H          -3.6651    2.7475    1.6726 H       1  UNL1        0.0278
     23 H          -6.3410    1.7143   -0.0018 H       1  UNL1        0.0278
     24 H          -6.1313    0.9051   -1.5565 H       1  UNL1        0.0278
     25 H          -5.0307    0.5548   -0.2253 H       1  UNL1        0.0278
@<TRIPOS>BOND
     1    12     6    1
     2    15     7    1
     3    13     6    1
     4    14     7    1
     5     6    11    1
     6     6     1    1
     7     7    16    1
     8     7     2    1
     9     1     2    1
    10     1     5    2
    11     2     3    1
    12    24    10    1
    13    18     8    1
    14     5    10    1
    15     5     4    1
    16     3     8    1
    17     3     4    2
    18    10    25    1
    19    10    23    1
    20     8    17    1
    21     8    19    1
    22     4     9    1
    23     9    20    1
    24     9    21    1
    25     9    22    1
