@<TRIPOS>MOLECULE
3,4,5,6,7
 34 34 0 0 0
SMALL
GASTEIGER

@<TRIPOS>ATOM
      1 SI          0.5363    2.1128   12.6397 Si      1  UNL1        0.0000
      2 SI         -0.0513    2.7648    6.8508 Si      1  UNL1        0.0000
      3 C           0.1248    2.2252    9.7324 C.3     1  UNL1        0.0000
      4 C           0.7112    2.7764    8.5661 C.3     1  UNL1        0.0000
      5 C           1.9098    3.4169    8.9766 C.2     1  UNL1        0.0000
      6 C           2.0505    3.2591   10.3644 C.2     1  UNL1        0.0000
      7 C           0.9425    2.5176   10.8522 C.3     1  UNL1        0.0000
      8 C          -1.9455    2.9652    7.0723 C.3     1  UNL1        0.0000
      9 C           0.6541    4.2096    5.8158 C.3     1  UNL1        0.0000
     10 C           0.3115    1.1071    5.9619 C.3     1  UNL1        0.0000
     11 C          -1.3616    2.2893   12.8483 C.3     1  UNL1        0.0000
     12 C           1.0548    0.3180   13.0640 C.3     1  UNL1        0.0000
     13 C           1.4476    3.3296   13.7997 C.3     1  UNL1        0.0000
     14 H          -0.7583    1.5959    9.7505 H       1  UNL1        0.0000
     15 H           2.6320    3.8743    8.3103 H       1  UNL1        0.0000
     16 H           2.9001    3.5740   10.9590 H       1  UNL1        0.0000
     17 H          -2.1465    3.5539    7.9687 H       1  UNL1        0.0000
     18 H          -2.4087    3.4634    6.2256 H       1  UNL1        0.0000
     19 H          -2.4381    2.0044    7.1913 H       1  UNL1        0.0000
     20 H           0.6272    5.1258    6.4004 H       1  UNL1        0.0000
     21 H           1.6851    4.0264    5.5279 H       1  UNL1        0.0000
     22 H           0.0857    4.3703    4.9046 H       1  UNL1        0.0000
     23 H           1.3760    0.9641    5.8067 H       1  UNL1        0.0000
     24 H          -0.0523    0.2591    6.5333 H       1  UNL1        0.0000
     25 H          -0.1688    1.0800    4.9896 H       1  UNL1        0.0000
     26 H          -1.8773    1.3633   12.6100 H       1  UNL1        0.0000
     27 H          -1.6406    2.5632   13.8616 H       1  UNL1        0.0000
     28 H          -1.7328    3.0591   12.1704 H       1  UNL1        0.0000
     29 H           2.1269    0.1804   12.9690 H       1  UNL1        0.0000
     30 H           0.7810    0.0716   14.0845 H       1  UNL1        0.0000
     31 H           0.5734   -0.4023   12.4104 H       1  UNL1        0.0000
     32 H           2.5118    3.1173   13.8420 H       1  UNL1        0.0000
     33 H           1.3235    4.3460   13.4338 H       1  UNL1        0.0000
     34 H           1.0664    3.2844   14.8156 H       1  UNL1        0.0000
@<TRIPOS>BOND
     1    22     9    1
     2    25    10    1
     3    21     9    1
     4    23    10    1
     5     9    20    1
     6     9     2    1
     7    10    24    1
     8    10     2    1
     9    18     8    1
    10     2     8    1
    11     2     4    1
    12     8    19    1
    13     8    17    1
    14    15     5    1
    15     4     5    1
    16     4     3    1
    17     5     6    2
    18     3    14    1
    19     3     7    1
    20     6     7    1
    21     6    16    1
    22     7     1    1
    23    28    11    1
    24    31    12    1
    25    26    11    1
    26     1    11    1
    27     1    12    1
    28     1    13    1
    29    11    27    1
    30    29    12    1
    31    12    30    1
    32    33    13    1
    33    13    32    1
    34    13    34    1
