@<TRIPOS>MOLECULE
2,3,4,5,6
 28 28 0 0 0
SMALL
GASTEIGER

@<TRIPOS>ATOM
      1 C          -0.6351    3.2859    1.8256 C.3     1  UNL1        0.0000
      2 C           0.5461    3.8308    2.5963 C.3     1  UNL1        0.0000
      3 C           1.8155    3.7038    2.0466 C.3     1  UNL1        0.0000
      4 C           1.9771    3.6397    0.6371 C.3     1  UNL1        0.0000
      5 C           0.8107    3.6797   -0.1709 C.3     1  UNL1        0.0000
      6 C          -0.4402    3.8102    0.4203 C.3     1  UNL1        0.0000
      7 C          -0.6983    1.7640    1.8657 C.3     1  UNL1        0.0000
      8 N           0.2842    1.0930    1.4689 N.3     1  UNL1        0.0000
      9 N           1.1387    0.4256    1.1301 N.3     1  UNL1        0.0000
     10 SI         -2.2561    0.8767    2.4813 Si      1  UNL1        0.0000
     11 C          -1.9590   -0.9939    2.3468 C.3     1  UNL1        0.0000
     12 C          -3.7130    1.4339    1.3838 C.3     1  UNL1        0.0000
     13 C          -2.5537    1.4072    4.2888 C.3     1  UNL1        0.0000
     14 H          -1.5737    3.6526    2.2471 H       1  UNL1        0.0000
     15 H           0.4458    3.8842    3.6767 H       1  UNL1        0.0000
     16 H           2.6973    3.7061    2.6845 H       1  UNL1        0.0000
     17 H           2.9415    3.4007    0.2030 H       1  UNL1        0.0000
     18 H           0.9116    3.6617   -1.2544 H       1  UNL1        0.0000
     19 H          -1.3194    3.8444   -0.2169 H       1  UNL1        0.0000
     20 H          -2.8267   -1.5510    2.6843 H       1  UNL1        0.0000
     21 H          -1.1127   -1.3054    2.9513 H       1  UNL1        0.0000
     22 H          -1.7552   -1.2913    1.3228 H       1  UNL1        0.0000
     23 H          -4.6420    0.9827    1.7179 H       1  UNL1        0.0000
     24 H          -3.5652    1.1489    0.3461 H       1  UNL1        0.0000
     25 H          -3.8475    2.5112    1.4130 H       1  UNL1        0.0000
     26 H          -3.4575    0.9505    4.6799 H       1  UNL1        0.0000
     27 H          -2.6702    2.4834    4.3778 H       1  UNL1        0.0000
     28 H          -1.7316    1.1109    4.9339 H       1  UNL1        0.0000
@<TRIPOS>BOND
     1    18     5    1
     2    19     6    1
     3     5     6    1
     4     5     4    1
     5    17     4    1
     6    24    12    1
     7     6     1    1
     8     4     3    1
     9     9     8    1
    10    22    11    1
    11    12    25    1
    12    12    23    1
    13    12    10    1
    14     8     7    1
    15     1     7    1
    16     1    14    1
    17     1     2    1
    18     7    10    1
    19     3     2    1
    20     3    16    1
    21    11    10    1
    22    11    20    1
    23    11    21    1
    24    10    13    1
    25     2    15    1
    26    13    27    1
    27    13    26    1
    28    13    28    1
