@<TRIPOS>MOLECULE
1,2,3,4,5
 25 25 0 0 0
SMALL
GASTEIGER

@<TRIPOS>ATOM
      1 C          -7.6007    1.7504    1.0228 C.2     1  UNL1       -0.0477
      2 C          -7.2492    0.5571    1.7150 C.2     1  UNL1       -0.0584
      3 C          -6.2820    0.8994    2.7045 C.3     1  UNL1        0.0231
      4 C          -6.0071    2.2934    2.5877 C.2     1  UNL1       -0.0584
      5 C          -6.8309    2.8178    1.5618 C.2     1  UNL1       -0.0477
      6 C          -8.5013    1.8456   -0.1759 C.3     1  UNL1       -0.0395
      7 C          -7.6575   -0.8324    1.3118 C.3     1  UNL1       -0.0424
      8 C          -5.5585   -0.0560    3.6088 C.3     1  UNL1       -0.0510
      9 C          -4.9188    3.0252    3.3157 C.3     1  UNL1       -0.0424
     10 C          -6.8391    4.2343    1.0665 C.3     1  UNL1       -0.0395
     11 H          -7.9310    2.1768   -1.0466 H       1  UNL1        0.0278
     12 H          -8.9426    0.8767   -0.4034 H       1  UNL1        0.0278
     13 H          -9.3078    2.5628   -0.0070 H       1  UNL1        0.0278
     14 H          -7.1771   -1.5703    1.9498 H       1  UNL1        0.0275
     15 H          -8.7377   -0.9754    1.3739 H       1  UNL1        0.0275
     16 H          -7.3476   -1.0210    0.2812 H       1  UNL1        0.0275
     17 H          -4.6651   -0.4461    3.1136 H       1  UNL1        0.0242
     18 H          -5.2463    0.4480    4.5235 H       1  UNL1        0.0242
     19 H          -6.2016   -0.8928    3.8796 H       1  UNL1        0.0242
     20 H          -3.9502    2.7910    2.8660 H       1  UNL1        0.0275
     21 H          -5.0684    4.1021    3.2619 H       1  UNL1        0.0275
     22 H          -4.8853    2.7400    4.3675 H       1  UNL1        0.0275
     23 H          -6.0222    4.3951    0.3580 H       1  UNL1        0.0278
     24 H          -7.7788    4.4588    0.5631 H       1  UNL1        0.0278
     25 H          -6.7159    4.9391    1.8907 H       1  UNL1        0.0278
@<TRIPOS>BOND
     1    11     6    1
     2    12     6    1
     3     6    13    1
     4     6     1    1
     5    16     7    1
     6    23    10    1
     7    24    10    1
     8     1     5    1
     9     1     2    2
    10    10     5    1
    11    10    25    1
    12     7    15    1
    13     7     2    1
    14     7    14    1
    15     5     4    2
    16     2     3    1
    17     4     3    1
    18     4     9    1
    19     3     8    1
    20    20     9    1
    21    17     8    1
    22    21     9    1
    23     9    22    1
    24     8    19    1
    25     8    18    1
