@<TRIPOS>MOLECULE
1,2,3,7,8
 10 10 0 0 0
SMALL
GASTEIGER

@<TRIPOS>ATOM
      1 C           2.9080    3.4693    1.0522 C.3     1  UNL1        0.0054
      2 C           2.3831    2.3069    1.7244 C.2     1  UNL1       -0.0763
      3 C           1.5219    2.7590    2.7335 C.2     1  UNL1       -0.0654
      4 H           3.7993    3.4693    0.4354 H       1  UNL1        0.0394
      5 H           2.7193    1.2918    1.5806 H       1  UNL1        0.0578
      6 H           1.0315    2.1367    3.4702 H       1  UNL1        0.0615
      7 C           2.3831    4.6316    1.7244 C.2     1  UNL1       -0.0763
      8 C           1.5219    4.1794    2.7336 C.2     1  UNL1       -0.0654
      9 H           2.7193    5.6467    1.5807 H       1  UNL1        0.0578
     10 H           1.0315    4.8017    3.4703 H       1  UNL1        0.0615
@<TRIPOS>BOND
     1     4     1    1
     2     1     2    1
     3     1     7    1
     4     5     2    1
     5     9     7    1
     6     2     3    2
     7     7     8    2
     8     3     8    1
     9     3     6    1
    10     8    10    1
