@<TRIPOS>MOLECULE
1,2,3,4,5
 10 10 0 0 0
SMALL
GASTEIGER

@<TRIPOS>ATOM
      1 C           2.4863    5.6926   -2.0092 C.2     1  UNL1       -0.0763
      2 C           1.2341    5.6850   -1.3805 C.2     1  UNL1       -0.0654
      3 C           1.2147    6.6988   -0.3878 C.2     1  UNL1       -0.0654
      4 C           2.4547    7.3515   -0.3846 C.2     1  UNL1       -0.0763
      5 C           3.2869    6.7082   -1.3712 C.3     1  UNL1        0.0054
      6 H           2.7446    5.1623   -2.9126 H       1  UNL1        0.0578
      7 H           0.3804    5.0941   -1.6848 H       1  UNL1        0.0615
      8 H           0.3441    6.9984    0.1803 H       1  UNL1        0.0615
      9 H           2.6854    8.2703    0.1318 H       1  UNL1        0.0578
     10 H           4.1788    7.1490   -1.8040 H       1  UNL1        0.0394
@<TRIPOS>BOND
     1     6     1    1
     2     1     2    2
     3     1     5    1
     4    10     5    1
     5     7     2    1
     6     2     3    1
     7     5     4    1
     8     3     4    2
     9     3     8    1
    10     4     9    1
