@<TRIPOS>MOLECULE
1,2,3,7,8
 10 10 0 0 0
SMALL
GASTEIGER

@<TRIPOS>ATOM
      1 C          -1.2959    3.4693   -0.5195 C.3     1  UNL1        0.0054
      2 C          -1.3409    2.3069    0.3323 C.2     1  UNL1       -0.0763
      3 C          -1.3532    2.7591    1.6589 C.2     1  UNL1       -0.0654
      4 H          -1.5640    3.4693   -1.5696 H       1  UNL1        0.0394
      5 H          -1.5003    1.2918    0.0033 H       1  UNL1        0.0578
      6 H          -1.4664    2.1368    2.5366 H       1  UNL1        0.0615
      7 C          -1.3409    4.6317    0.3323 C.2     1  UNL1       -0.0763
      8 C          -1.3532    4.1795    1.6589 C.2     1  UNL1       -0.0654
      9 H          -1.5003    5.6467    0.0033 H       1  UNL1        0.0578
     10 H          -1.4664    4.8018    2.5367 H       1  UNL1        0.0615
@<TRIPOS>BOND
     1     4     1    1
     2     1     2    1
     3     1     7    1
     4     5     2    1
     5     9     7    1
     6     2     3    2
     7     7     8    2
     8     3     8    1
     9     3     6    1
    10     8    10    1
