@<TRIPOS>MOLECULE
1,2,3,4,5
 10 10 0 0 0
SMALL
GASTEIGER

@<TRIPOS>ATOM
      1 C           2.4365    2.9213    0.8216 C.2     1  UNL1       -0.0763
      2 C           1.1966    3.5723    0.7792 C.2     1  UNL1       -0.0654
      3 C           1.1785    4.5850    1.7726 C.2     1  UNL1       -0.0654
      4 C           2.4069    4.5778    2.4461 C.2     1  UNL1       -0.0763
      5 C           3.2322    3.5648    1.8370 C.3     1  UNL1        0.0054
      6 H           2.6845    2.0024    0.3139 H       1  UNL1        0.0578
      7 H           0.3474    3.2704    0.1806 H       1  UNL1        0.0615
      8 H           0.3137    5.1743    2.0471 H       1  UNL1        0.0615
      9 H           2.6297    5.1086    3.3583 H       1  UNL1        0.0578
     10 H           4.1166    3.1321    2.2945 H       1  UNL1        0.0394
@<TRIPOS>BOND
     1     7     2    1
     2     6     1    1
     3     2     1    2
     4     2     3    1
     5     1     5    1
     6     3     8    1
     7     3     4    2
     8     5    10    1
     9     5     4    1
    10     4     9    1
