@<TRIPOS>MOLECULE
2,3,5,7,9
 22 22 0 0 0
SMALL
GASTEIGER

@<TRIPOS>ATOM
      1 SI          7.4958   10.0330    7.4529 Si      1  UNL1        0.0000
      2 C           6.4872    9.7922    5.8556 C.2     1  UNL1        0.0000
      3 C           5.6312    8.6891    5.5488 C.2     1  UNL1        0.0000
      4 H           5.4227    7.8663    6.2238 H       1  UNL1        0.0000
      5 C           4.8461    9.0253    4.4108 C.2     1  UNL1        0.0000
      6 H           3.9964    8.4606    4.0426 H       1  UNL1        0.0000
      7 C           5.2391   10.3034    3.9823 C.2     1  UNL1        0.0000
      8 H           4.7582   10.8867    3.2072 H       1  UNL1        0.0000
      9 C           6.2395   10.7692    4.8649 C.3     1  UNL1        0.0000
     10 H           6.6366   11.7727    4.8801 H       1  UNL1        0.0000
     11 C           6.6487   11.4436    8.4120 C.3     1  UNL1        0.0000
     12 H           5.6028   11.2270    8.6080 H       1  UNL1        0.0000
     13 H           6.6940   12.3863    7.8750 H       1  UNL1        0.0000
     14 H           7.1363   11.5916    9.3696 H       1  UNL1        0.0000
     15 C           9.2747   10.4993    6.9457 C.3     1  UNL1        0.0000
     16 H           9.8464    9.6300    6.6342 H       1  UNL1        0.0000
     17 H           9.8034   10.9480    7.7805 H       1  UNL1        0.0000
     18 H           9.2873   11.2167    6.1301 H       1  UNL1        0.0000
     19 C           7.4400    8.3837    8.4047 C.3     1  UNL1        0.0000
     20 H           7.7907    7.5517    7.7999 H       1  UNL1        0.0000
     21 H           6.4353    8.1500    8.7448 H       1  UNL1        0.0000
     22 H           8.0725    8.4356    9.2844 H       1  UNL1        0.0000
@<TRIPOS>BOND
     1     8     7    1
     2     7     5    2
     3     7     9    1
     4     6     5    1
     5     5     3    1
     6     9    10    1
     7     9     2    1
     8     3     2    2
     9     3     4    1
    10     2     1    1
    11    18    15    1
    12    16    15    1
    13    15     1    1
    14    15    17    1
    15     1    19    1
    16     1    11    1
    17    20    19    1
    18    13    11    1
    19    19    21    1
    20    19    22    1
    21    11    12    1
    22    11    14    1
