@<TRIPOS>MOLECULE
2,3,5,7,9
 22 22 0 0 0
SMALL
GASTEIGER

@<TRIPOS>ATOM
      1 SI          5.5576    5.0495   16.0770 Si      1  UNL1        0.0000
      2 C           7.3569    4.4866   15.9244 C.3     1  UNL1        0.0000
      3 C           8.2320    4.1877   17.0134 C.2     1  UNL1        0.0000
      4 H           7.9284    4.1220   18.0513 H       1  UNL1        0.0000
      5 C           9.5494    4.1491   16.5492 C.2     1  UNL1        0.0000
      6 H          10.4320    4.0204   17.1605 H       1  UNL1        0.0000
      7 C           9.5344    4.4379   15.1668 C.2     1  UNL1        0.0000
      8 H          10.4071    4.6067   14.5489 H       1  UNL1        0.0000
      9 C           8.2016    4.6536   14.7785 C.2     1  UNL1        0.0000
     10 H           7.8776    5.0302   13.8166 H       1  UNL1        0.0000
     11 C           4.3913    3.5882   16.4581 C.3     1  UNL1        0.0000
     12 H           4.4709    2.8128   15.7000 H       1  UNL1        0.0000
     13 H           3.3559    3.9121   16.4976 H       1  UNL1        0.0000
     14 H           4.6298    3.1258   17.4111 H       1  UNL1        0.0000
     15 C           5.4775    6.3346   17.4908 C.3     1  UNL1        0.0000
     16 H           6.1524    7.1671   17.3163 H       1  UNL1        0.0000
     17 H           5.7418    5.8924   18.4464 H       1  UNL1        0.0000
     18 H           4.4746    6.7380   17.5835 H       1  UNL1        0.0000
     19 C           5.0583    5.8565   14.4201 C.3     1  UNL1        0.0000
     20 H           5.1095    5.1422   13.6039 H       1  UNL1        0.0000
     21 H           5.6968    6.6985   14.1706 H       1  UNL1        0.0000
     22 H           4.0390    6.2244   14.4687 H       1  UNL1        0.0000
@<TRIPOS>BOND
     1    20    19    1
     2    10     9    1
     3    21    19    1
     4    19    22    1
     5    19     1    1
     6     8     7    1
     7     9     7    2
     8     9     2    1
     9     7     5    1
    10    12    11    1
    11     2     1    1
    12     2     3    1
    13     1    11    1
    14     1    15    1
    15    11    13    1
    16    11    14    1
    17     5     3    2
    18     5     6    1
    19     3     4    1
    20    16    15    1
    21    15    18    1
    22    15    17    1
