@<TRIPOS>MOLECULE
2,3,5,7,9
 22 22 0 0 0
SMALL
GASTEIGER

@<TRIPOS>ATOM
      1 SI          7.3025   -1.1772   14.0354 Si      1  UNL1        0.0000
      2 C           8.5731    0.1549   14.4706 C.3     1  UNL1        0.0000
      3 C           9.1679    1.0833   13.5533 C.2     1  UNL1        0.0000
      4 H           8.8797    1.2047   12.5169 H       1  UNL1        0.0000
      5 C          10.2963    1.6569   14.1613 C.2     1  UNL1        0.0000
      6 H          11.0120    2.3076   13.6754 H       1  UNL1        0.0000
      7 C          10.4354    1.0955   15.4496 C.2     1  UNL1        0.0000
      8 H          11.2551    1.2705   16.1330 H       1  UNL1        0.0000
      9 C           9.3995    0.1761   15.6362 C.2     1  UNL1        0.0000
     10 H           9.3122   -0.5062   16.4727 H       1  UNL1        0.0000
     11 C           8.1288   -2.8710   14.3619 C.3     1  UNL1        0.0000
     12 H           7.4377   -3.6814   14.1552 H       1  UNL1        0.0000
     13 H           8.4480   -2.9647   15.3950 H       1  UNL1        0.0000
     14 H           9.0040   -3.0156   13.7355 H       1  UNL1        0.0000
     15 C           6.8840   -1.0046   12.1808 C.3     1  UNL1        0.0000
     16 H           6.1814   -1.7732   11.8769 H       1  UNL1        0.0000
     17 H           7.7660   -1.1048   11.5557 H       1  UNL1        0.0000
     18 H           6.4287   -0.0422   11.9680 H       1  UNL1        0.0000
     19 C           5.7020   -1.0105   15.0637 C.3     1  UNL1        0.0000
     20 H           4.9295   -1.6766   14.6918 H       1  UNL1        0.0000
     21 H           5.3163    0.0060   15.0243 H       1  UNL1        0.0000
     22 H           5.8595   -1.2496   16.1114 H       1  UNL1        0.0000
@<TRIPOS>BOND
     1    17    15    1
     2    16    15    1
     3    18    15    1
     4    15     1    1
     5     4     3    1
     6     3     5    2
     7     3     2    1
     8     6     5    1
     9    14    11    1
    10     1    11    1
    11     1     2    1
    12     1    19    1
    13    12    11    1
    14     5     7    1
    15    11    13    1
    16     2     9    1
    17    20    19    1
    18    21    19    1
    19    19    22    1
    20     7     9    2
    21     7     8    1
    22     9    10    1
