@<TRIPOS>MOLECULE
2,3,5,7,9
 22 22 0 0 0
SMALL
GASTEIGER

@<TRIPOS>ATOM
      1 SI          8.2944   12.6159    2.4918 Si      1  UNL1        0.0000
      2 C           8.2054   10.7132    2.5098 C.3     1  UNL1        0.0000
      3 C           9.2476    9.8581    2.9468 C.3     1  UNL1        0.0000
      4 H          10.1029   10.1613    3.5367 H       1  UNL1        0.0000
      5 C           9.1233    8.6004    2.2872 C.3     1  UNL1        0.0000
      6 H           9.8836    7.8265    2.2593 H       1  UNL1        0.0000
      7 C           8.0008    8.6867    1.4196 C.2     1  UNL1        0.0000
      8 H           7.7235    7.9513    0.6719 H       1  UNL1        0.0000
      9 C           7.4300    9.9569    1.5830 C.2     1  UNL1        0.0000
     10 H           6.6382   10.3657    0.9684 H       1  UNL1        0.0000
     11 C           9.1060   13.2875    4.0787 C.3     1  UNL1        0.0000
     12 H          10.0456   12.7876    4.2947 H       1  UNL1        0.0000
     13 H           8.4765   13.2128    4.9609 H       1  UNL1        0.0000
     14 H           9.3319   14.3401    3.9405 H       1  UNL1        0.0000
     15 C           6.5584   13.3645    2.2286 C.3     1  UNL1        0.0000
     16 H           6.0556   12.9356    1.3660 H       1  UNL1        0.0000
     17 H           6.6561   14.4285    2.0373 H       1  UNL1        0.0000
     18 H           5.9011   13.2576    3.0868 H       1  UNL1        0.0000
     19 C           9.3963   12.9624    0.9774 C.3     1  UNL1        0.0000
     20 H           8.9701   12.5621    0.0619 H       1  UNL1        0.0000
     21 H          10.3852   12.5284    1.0941 H       1  UNL1        0.0000
     22 H           9.5222   14.0313    0.8394 H       1  UNL1        0.0000
@<TRIPOS>BOND
     1    20    19    1
     2     8     7    1
     3    22    19    1
     4    10     9    1
     5    19    21    1
     6    19     1    1
     7    16    15    1
     8     7     9    2
     9     7     5    1
    10     9     2    1
    11    17    15    1
    12    15     1    1
    13    15    18    1
    14     6     5    1
    15     5     3    1
    16     1     2    1
    17     1    11    1
    18     2     3    1
    19     3     4    1
    20    14    11    1
    21    11    12    1
    22    11    13    1
