@<TRIPOS>MOLECULE
1,2,3,4,5
 22 22 0 0 0
SMALL
GASTEIGER

@<TRIPOS>ATOM
      1 C           3.0009    4.8043   12.3427 C.2     1  UNL1        0.0000
      2 C           2.5399    3.4644   12.3561 C.3     1  UNL1        0.0000
      3 C           3.3339    2.7521   11.4284 C.3     1  UNL1        0.0000
      4 C           4.2889    3.6356   10.8755 C.3     1  UNL1        0.0000
      5 C           4.0874    4.9010   11.4514 C.2     1  UNL1        0.0000
      6 C           0.1301    4.1382   14.1944 C.3     1  UNL1        0.0000
      7 C           2.0791    1.7929   14.8998 C.3     1  UNL1        0.0000
      8 C           0.1573    1.5103   12.4622 C.3     1  UNL1        0.0000
      9 SI          1.2137    2.7394   13.4805 Si      1  UNL1        0.0000
     10 H           2.6290    5.6021   12.9732 H       1  UNL1        0.0000
     11 H           3.3243    1.6754   11.3080 H       1  UNL1        0.0000
     12 H           5.1168    3.3575   10.2382 H       1  UNL1        0.0000
     13 H           4.6941    5.7823   11.2920 H       1  UNL1        0.0000
     14 H          -0.7415    3.7421   14.7062 H       1  UNL1        0.0000
     15 H           0.6816    4.7424   14.9086 H       1  UNL1        0.0000
     16 H          -0.2164    4.7928   13.3999 H       1  UNL1        0.0000
     17 H           2.7062    0.9909   14.5239 H       1  UNL1        0.0000
     18 H           2.7084    2.4504   15.4907 H       1  UNL1        0.0000
     19 H           1.3461    1.3520   15.5667 H       1  UNL1        0.0000
     20 H          -0.2847    2.0139   11.6065 H       1  UNL1        0.0000
     21 H          -0.6492    1.0916   13.0562 H       1  UNL1        0.0000
     22 H           0.7540    0.6799   12.0936 H       1  UNL1        0.0000
@<TRIPOS>BOND
     1    12     4    1
     2     4     3    1
     3     4     5    1
     4    13     5    1
     5    11     3    1
     6     3     2    1
     7     5     1    2
     8    20     8    1
     9    22     8    1
    10     1     2    1
    11     1    10    1
    12     2     9    1
    13     8    21    1
    14     8     9    1
    15    16     6    1
    16     9     6    1
    17     9     7    1
    18     6    14    1
    19     6    15    1
    20    17     7    1
    21     7    18    1
    22     7    19    1
