@<TRIPOS>MOLECULE
1,2,3,4,5
 34 34 0 0 0
SMALL
GASTEIGER

@<TRIPOS>ATOM
      1 C           0.6545    3.7884    8.3810 C.3     1  UNL1        0.0000
      2 C           1.7258    4.5420    7.8603 C.3     1  UNL1        0.0000
      3 C           2.9395    3.8276    8.0106 C.2     1  UNL1        0.0000
      4 C           2.5970    2.5896    8.6134 C.2     1  UNL1        0.0000
      5 C           1.2141    2.5764    8.8704 C.3     1  UNL1        0.0000
      6 C          -1.1372    6.2330    8.8077 C.3     1  UNL1        0.0000
      7 C          -2.2085    3.3690    9.5893 C.3     1  UNL1        0.0000
      8 C          -1.8179    4.1208    6.5926 C.3     1  UNL1        0.0000
      9 C           4.2020    4.9175    5.4409 C.3     1  UNL1        0.0000
     10 C           5.7935    2.9057    7.1876 C.3     1  UNL1        0.0000
     11 C           5.3109    5.8538    8.1914 C.3     1  UNL1        0.0000
     12 SI         -1.1385    4.3733    8.3645 Si      1  UNL1        0.0000
     13 SI          4.5647    4.3716    7.2373 Si      1  UNL1        0.0000
     14 H           1.6269    5.5008    7.3685 H       1  UNL1        0.0000
     15 H           3.2699    1.7485    8.7280 H       1  UNL1        0.0000
     16 H           0.6447    1.7297    9.2351 H       1  UNL1        0.0000
     17 H          -2.1101    6.5678    9.1539 H       1  UNL1        0.0000
     18 H          -0.8665    6.8457    7.9522 H       1  UNL1        0.0000
     19 H          -0.4131    6.4271    9.5982 H       1  UNL1        0.0000
     20 H          -1.8916    3.5485   10.6119 H       1  UNL1        0.0000
     21 H          -2.1474    2.3015    9.3979 H       1  UNL1        0.0000
     22 H          -3.2531    3.6536    9.5105 H       1  UNL1        0.0000
     23 H          -2.8278    4.5082    6.5150 H       1  UNL1        0.0000
     24 H          -1.2105    4.6325    5.8533 H       1  UNL1        0.0000
     25 H          -1.8476    3.0704    6.3220 H       1  UNL1        0.0000
     26 H           3.6860    4.1418    4.8835 H       1  UNL1        0.0000
     27 H           5.1220    5.1461    4.9121 H       1  UNL1        0.0000
     28 H           3.5806    5.8072    5.4163 H       1  UNL1        0.0000
     29 H           6.7191    3.2066    6.7077 H       1  UNL1        0.0000
     30 H           5.3880    2.0742    6.6198 H       1  UNL1        0.0000
     31 H           6.0479    2.5347    8.1759 H       1  UNL1        0.0000
     32 H           5.8574    6.5155    7.5260 H       1  UNL1        0.0000
     33 H           4.5218    6.4375    8.6620 H       1  UNL1        0.0000
     34 H           5.9998    5.5374    8.9694 H       1  UNL1        0.0000
@<TRIPOS>BOND
     1    26     9    1
     2    27     9    1
     3    28     9    1
     4     9    13    1
     5    24     8    1
     6    25     8    1
     7    23     8    1
     8     8    12    1
     9    30    10    1
    10    29    10    1
    11    10    13    1
    12    10    31    1
    13    13     3    1
    14    13    11    1
    15    14     2    1
    16    32    11    1
    17     2     3    1
    18     2     1    1
    19    18     6    1
    20     3     4    2
    21    11    33    1
    22    11    34    1
    23    12     1    1
    24    12     6    1
    25    12     7    1
    26     1     5    1
    27     4    15    1
    28     4     5    1
    29     6    17    1
    30     6    19    1
    31     5    16    1
    32    21     7    1
    33    22     7    1
    34     7    20    1
