@<TRIPOS>MOLECULE
1,2,3,4,5
 10 10 0 0 0
SMALL
GASTEIGER

@<TRIPOS>ATOM
      1 C          -1.5069    5.3509    5.5176 C.2     1  UNL1       -0.0763
      2 C          -0.1877    4.9469    5.7991 C.2     1  UNL1       -0.0654
      3 C           0.0951    3.8087    5.0189 C.2     1  UNL1       -0.0654
      4 C          -1.0516    3.5094    4.2525 C.2     1  UNL1       -0.0763
      5 C          -2.0412    4.4653    4.5634 C.3     1  UNL1        0.0054
      6 H          -2.0595    6.1145    6.0465 H       1  UNL1        0.0578
      7 H           0.4321    5.3331    6.5967 H       1  UNL1        0.0615
      8 H           0.9505    3.1578    5.1473 H       1  UNL1        0.0615
      9 H          -1.1938    2.6125    3.6598 H       1  UNL1        0.0578
     10 H          -3.0760    4.4411    4.2452 H       1  UNL1        0.0394
@<TRIPOS>BOND
     1     9     4    1
     2    10     5    1
     3     4     5    1
     4     4     3    2
     5     5     1    1
     6     3     8    1
     7     3     2    1
     8     1     2    2
     9     1     6    1
    10     2     7    1
