@<TRIPOS>MOLECULE
1,2,3,4,5
 10 10 0 0 0
SMALL
GASTEIGER

@<TRIPOS>ATOM
      1 C          -0.6108    4.3294    1.1278 C.3     1  UNL1       -0.0127
      2 C          -1.9182    4.6231    1.5603 C.2     1  UNL1       -0.0837
      3 C          -2.1018    6.0139    1.4981 C.2     1  UNL1       -0.0837
      4 C          -0.9179    6.5849    0.9780 C.3     1  UNL1       -0.0127
      5 C           0.0015    5.5442    0.7463 C.3     1  UNL1       -0.0235
      6 H          -0.2202    3.3349    0.9456 H       1  UNL1        0.0352
      7 H          -2.6850    3.8923    1.7810 H       1  UNL1        0.0572
      8 H          -3.0334    6.5403    1.6694 H       1  UNL1        0.0572
      9 H          -0.7896    7.6159    0.6772 H       1  UNL1        0.0352
     10 H           0.9564    5.6496    0.2467 H       1  UNL1        0.0315
@<TRIPOS>BOND
     1    10     5    1
     2     9     4    1
     3     5     4    1
     4     5     1    1
     5     6     1    1
     6     4     3    1
     7     1     2    1
     8     3     2    2
     9     3     8    1
    10     2     7    1
