@<TRIPOS>MOLECULE
2,3,5,7,9
 22 22 0 0 0
SMALL
GASTEIGER

@<TRIPOS>ATOM
      1 SI          2.3067    1.0403   20.2770 Si      1  UNL1        0.0000
      2 C           3.6736    0.7205   18.9961 C.2     1  UNL1        0.0000
      3 C           4.7383    1.6022   18.7096 C.3     1  UNL1        0.0000
      4 H           4.8040    2.6285   19.0490 H       1  UNL1        0.0000
      5 C           5.8064    0.8692   18.1181 C.2     1  UNL1        0.0000
      6 H           6.8327    1.2107   18.0332 H       1  UNL1        0.0000
      7 C           5.3984   -0.4956   18.0575 C.2     1  UNL1        0.0000
      8 H           6.0376   -1.3314   17.8025 H       1  UNL1        0.0000
      9 C           4.0950   -0.5701   18.5695 C.2     1  UNL1        0.0000
     10 H           3.5566   -1.4909   18.7490 H       1  UNL1        0.0000
     11 C           1.6867    2.8445   20.1981 C.3     1  UNL1        0.0000
     12 H           1.0547    3.0463   19.3380 H       1  UNL1        0.0000
     13 H           2.5035    3.5607   20.1909 H       1  UNL1        0.0000
     14 H           1.0904    3.0513   21.0814 H       1  UNL1        0.0000
     15 C           3.1795    0.7325   21.9422 C.3     1  UNL1        0.0000
     16 H           2.4868    0.8794   22.7644 H       1  UNL1        0.0000
     17 H           4.0144    1.4109   22.0910 H       1  UNL1        0.0000
     18 H           3.5646   -0.2804   22.0144 H       1  UNL1        0.0000
     19 C           0.8446   -0.1656   20.0685 C.3     1  UNL1        0.0000
     20 H           0.2321    0.0456   19.1969 H       1  UNL1        0.0000
     21 H           0.1966   -0.0930   20.9365 H       1  UNL1        0.0000
     22 H           1.1738   -1.1989   20.0055 H       1  UNL1        0.0000
@<TRIPOS>BOND
     1     8     7    1
     2     6     5    1
     3     7     5    2
     4     7     9    1
     5     5     3    1
     6     9    10    1
     7     9     2    2
     8     3     2    1
     9     3     4    1
    10     2     1    1
    11    20    19    1
    12    12    11    1
    13    22    19    1
    14    19     1    1
    15    19    21    1
    16    13    11    1
    17    11     1    1
    18    11    14    1
    19     1    15    1
    20    15    18    1
    21    15    17    1
    22    15    16    1
