@<TRIPOS>MOLECULE
2,3,5,7,9
 22 22 0 0 0
SMALL
GASTEIGER

@<TRIPOS>ATOM
      1 SI          2.6391   -2.3361   14.7161 Si      1  UNL1        0.0000
      2 C           2.4642   -0.5517   15.3399 C.2     1  UNL1        0.0000
      3 C           1.8594   -0.1905   16.5697 C.3     1  UNL1        0.0000
      4 H           1.5027   -0.8948   17.3072 H       1  UNL1        0.0000
      5 C           1.5777    1.1918   16.5688 C.2     1  UNL1        0.0000
      6 H           1.0033    1.7212   17.3154 H       1  UNL1        0.0000
      7 C           1.9971    1.7148   15.3374 C.2     1  UNL1        0.0000
      8 H           1.8011    2.7183   14.9819 H       1  UNL1        0.0000
      9 C           2.5774    0.6594   14.5883 C.2     1  UNL1        0.0000
     10 H           2.8332    0.7185   13.5360 H       1  UNL1        0.0000
     11 C           2.0691   -2.3710   12.8981 C.3     1  UNL1        0.0000
     12 H           2.5772   -1.6314   12.2876 H       1  UNL1        0.0000
     13 H           1.0028   -2.1827   12.8186 H       1  UNL1        0.0000
     14 H           2.2600   -3.3458   12.4619 H       1  UNL1        0.0000
     15 C           4.4376   -2.9501   14.9148 C.3     1  UNL1        0.0000
     16 H           4.8755   -2.6112   15.8509 H       1  UNL1        0.0000
     17 H           5.0789   -2.6067   14.1100 H       1  UNL1        0.0000
     18 H           4.4671   -4.0352   14.9096 H       1  UNL1        0.0000
     19 C           1.4922   -3.4180   15.7905 C.3     1  UNL1        0.0000
     20 H           1.4370   -4.4217   15.3819 H       1  UNL1        0.0000
     21 H           0.4795   -3.0271   15.8247 H       1  UNL1        0.0000
     22 H           1.8505   -3.5083   16.8120 H       1  UNL1        0.0000
@<TRIPOS>BOND
     1    12    11    1
     2    14    11    1
     3    13    11    1
     4    11     1    1
     5    10     9    1
     6    17    15    1
     7     9     7    1
     8     9     2    2
     9     1    15    1
    10     1     2    1
    11     1    19    1
    12    18    15    1
    13    15    16    1
    14     8     7    1
    15     7     5    2
    16     2     3    1
    17    20    19    1
    18    19    21    1
    19    19    22    1
    20     5     3    1
    21     5     6    1
    22     3     4    1
