@<TRIPOS>MOLECULE
3,4,5,6,7
 43 43 0 0 0
SMALL
GASTEIGER

@<TRIPOS>ATOM
      1 CL         -2.4733    1.0491    0.1245 Cl      1  UNL1        0.0000
      2 SI         -1.8723   -0.0934    1.7080 Si      1  UNL1        0.0000
      3 C           3.5958    3.9150    4.9047 C.3     1  UNL1        0.0000
      4 C           4.9265    4.2985    4.6331 C.3     1  UNL1        0.0000
      5 C           4.9896    4.7938    3.2704 C.2     1  UNL1        0.0000
      6 C           3.6973    4.7154    2.7102 C.2     1  UNL1        0.0000
      7 C           2.8107    4.2619    3.7498 C.3     1  UNL1        0.0000
      8 C           3.1260    3.1284    6.0901 C.3     1  UNL1        0.0000
      9 C           6.1252    3.9690    5.4685 C.3     1  UNL1        0.0000
     10 C           6.2615    5.0429    2.5200 C.3     1  UNL1        0.0000
     11 C           3.3469    4.8891    1.2642 C.3     1  UNL1        0.0000
     12 C           1.3889    3.8357    3.5255 C.3     1  UNL1        0.0000
     13 C           1.3449    2.3907    3.0135 C.3     1  UNL1        0.0000
     14 C          -0.0807    1.9426    2.7034 C.3     1  UNL1        0.0000
     15 C          -0.1262    0.4930    2.2222 C.3     1  UNL1        0.0000
     16 C          -3.1290    0.1423    3.1197 C.3     1  UNL1        0.0000
     17 C          -1.8139   -1.9128    1.1502 C.3     1  UNL1        0.0000
     18 H           3.3361    2.0681    5.9322 H       1  UNL1        0.0000
     19 H           3.6359    3.4394    6.9996 H       1  UNL1        0.0000
     20 H           2.0558    3.2457    6.2404 H       1  UNL1        0.0000
     21 H           6.5185    2.9954    5.1684 H       1  UNL1        0.0000
     22 H           6.9146    4.7058    5.3393 H       1  UNL1        0.0000
     23 H           5.8681    3.9217    6.5240 H       1  UNL1        0.0000
     24 H           6.6565    4.0935    2.1524 H       1  UNL1        0.0000
     25 H           6.0930    5.6949    1.6662 H       1  UNL1        0.0000
     26 H           7.0163    5.4982    3.1569 H       1  UNL1        0.0000
     27 H           3.5554    3.9634    0.7232 H       1  UNL1        0.0000
     28 H           2.2933    5.1257    1.1396 H       1  UNL1        0.0000
     29 H           3.9329    5.6839    0.8075 H       1  UNL1        0.0000
     30 H           0.9082    4.4890    2.7943 H       1  UNL1        0.0000
     31 H           0.8175    3.9066    4.4535 H       1  UNL1        0.0000
     32 H           1.9539    2.3114    2.1104 H       1  UNL1        0.0000
     33 H           1.7803    1.7288    3.7653 H       1  UNL1        0.0000
     34 H          -0.6944    2.0490    3.6003 H       1  UNL1        0.0000
     35 H          -0.5025    2.5943    1.9355 H       1  UNL1        0.0000
     36 H           0.5545    0.3873    1.3746 H       1  UNL1        0.0000
     37 H           0.2650   -0.1521    3.0106 H       1  UNL1        0.0000
     38 H          -2.8211   -0.3851    4.0172 H       1  UNL1        0.0000
     39 H          -3.2443    1.1916    3.3754 H       1  UNL1        0.0000
     40 H          -4.1090   -0.2325    2.8383 H       1  UNL1        0.0000
     41 H          -1.5213   -2.5672    1.9648 H       1  UNL1        0.0000
     42 H          -2.7853   -2.2436    0.7954 H       1  UNL1        0.0000
     43 H          -1.1047   -2.0573    0.3406 H       1  UNL1        0.0000
@<TRIPOS>BOND
     1     1     2    1
     2    43    17    1
     3    27    11    1
     4    42    17    1
     5    29    11    1
     6    28    11    1
     7    17     2    1
     8    17    41    1
     9    11     6    1
    10    36    15    1
    11    25    10    1
    12     2    15    1
    13     2    16    1
    14    35    14    1
    15    32    13    1
    16    24    10    1
    17    15    14    1
    18    15    37    1
    19    10    26    1
    20    10     5    1
    21    14    13    1
    22    14    34    1
    23     6     5    2
    24     6     7    1
    25    30    12    1
    26    40    16    1
    27    13    12    1
    28    13    33    1
    29    16    39    1
    30    16    38    1
    31     5     4    1
    32    12     7    1
    33    12    31    1
    34     7     3    1
    35     4     3    1
    36     4     9    1
    37     3     8    1
    38    21     9    1
    39    22     9    1
    40     9    23    1
    41    18     8    1
    42     8    20    1
    43     8    19    1
