@<TRIPOS>MOLECULE
1,3,5,7,9
 10 10 0 0 0
SMALL
GASTEIGER

@<TRIPOS>ATOM
      1 C           4.8425    1.7299    9.1312 C.3     1  UNL1       -0.0235
      2 H           5.6487    2.3312    9.5151 H       1  UNL1        0.0315
      3 C           4.8839    0.9210    7.9716 C.3     1  UNL1       -0.0127
      4 H           5.7436    0.7730    7.3390 H       1  UNL1        0.0352
      5 C           3.6845    0.1603    7.9237 C.2     1  UNL1       -0.0837
      6 H           3.4710   -0.6339    7.2270 H       1  UNL1        0.0572
      7 C           2.8877    0.5364    9.0228 C.2     1  UNL1       -0.0837
      8 H           1.9554    0.0815    9.3147 H       1  UNL1        0.0572
      9 C           3.5916    1.5284    9.7573 C.3     1  UNL1       -0.0127
     10 H           3.2985    1.9298   10.7129 H       1  UNL1        0.0352
@<TRIPOS>BOND
     1     6     5    1
     2     4     3    1
     3     5     3    1
     4     5     7    2
     5     3     1    1
     6     7     8    1
     7     7     9    1
     8     1     2    1
     9     1     9    1
    10     9    10    1
