@<TRIPOS>MOLECULE
1,2,3,4,5
 41 42 0 0 0
SMALL
GASTEIGER

@<TRIPOS>ATOM
      1 C           2.6663   14.9279   13.7791 C.3     1  UNL1        0.0000
      2 C           4.0885   14.7654   13.8917 C.3     1  UNL1        0.0000
      3 C           4.3580   13.4526   14.3412 C.2     1  UNL1        0.0000
      4 C           3.1181   12.7692   14.4775 C.2     1  UNL1        0.0000
      5 C           2.0816   13.6753   14.1484 C.3     1  UNL1        0.0000
      6 C           5.1146   15.8624   13.8184 C.3     1  UNL1        0.0000
      7 H           5.2445   16.3193   14.8029 H       1  UNL1        0.0000
      8 H           4.8110   16.6431   13.1269 H       1  UNL1        0.0000
      9 H           6.0858   15.4772   13.5050 H       1  UNL1        0.0000
     10 C           5.6832   12.9700   14.8630 C.3     1  UNL1        0.0000
     11 H           6.5162   13.4365   14.3385 H       1  UNL1        0.0000
     12 H           5.7845   11.8879   14.7834 H       1  UNL1        0.0000
     13 H           5.7765   13.2275   15.9213 H       1  UNL1        0.0000
     14 C           2.9111   11.4207   15.1125 C.3     1  UNL1        0.0000
     15 H           2.6121   11.5424   16.1563 H       1  UNL1        0.0000
     16 H           3.8230   10.8261   15.0972 H       1  UNL1        0.0000
     17 H           2.1235   10.8562   14.6108 H       1  UNL1        0.0000
     18 C           0.6229   13.4296   14.4099 C.3     1  UNL1        0.0000
     19 H           0.3541   12.3883   14.2365 H       1  UNL1        0.0000
     20 H          -0.0043   14.0604   13.7856 H       1  UNL1        0.0000
     21 H           0.3903   13.6637   15.4515 H       1  UNL1        0.0000
     22 SI          1.6496   16.4940   13.5877 Si      1  UNL1        0.0000
     23 C           2.6040   18.1272   13.3041 C.3     1  UNL1        0.0000
     24 H           3.3203   18.3216   14.0947 H       1  UNL1        0.0000
     25 H           1.8999   18.9541   13.2963 H       1  UNL1        0.0000
     26 H           3.1301   18.1416   12.3546 H       1  UNL1        0.0000
     27 C           0.4263   16.3047   12.1185 C.3     1  UNL1        0.0000
     28 H           0.7727   15.5429   11.4203 H       1  UNL1        0.0000
     29 H           0.3222   17.2345   11.5685 H       1  UNL1        0.0000
     30 H          -0.5648   16.0171   12.4554 H       1  UNL1        0.0000
     31 C           0.6717   16.7462   15.2009 C.ar    1  UNL1        0.0000
     32 C          -0.5210   17.4614   15.2171 C.ar    1  UNL1        0.0000
     33 H          -0.9047   17.8694   14.2928 H       1  UNL1        0.0000
     34 C          -1.2247   17.6589   16.3914 C.ar    1  UNL1        0.0000
     35 H          -2.1510   18.2165   16.3806 H       1  UNL1        0.0000
     36 C          -0.7430   17.1418   17.5819 C.ar    1  UNL1        0.0000
     37 H          -1.2911   17.2927   18.5010 H       1  UNL1        0.0000
     38 C           0.4450   16.4306   17.5874 C.ar    1  UNL1        0.0000
     39 H           0.8267   16.0253   18.5144 H       1  UNL1        0.0000
     40 C           1.1414   16.2379   16.4082 C.ar    1  UNL1        0.0000
     41 H           2.0659   15.6786   16.4166 H       1  UNL1        0.0000
@<TRIPOS>BOND
     1    28    27    1
     2    29    27    1
     3    27    30    1
     4    27    22    1
     5    26    23    1
     6     8     6    1
     7    25    23    1
     8    23    22    1
     9    23    24    1
    10     9     6    1
    11    22     1    1
    12    22    31    1
    13     1     2    1
    14     1     5    1
    15    20    18    1
    16     6     2    1
    17     6     7    1
    18     2     3    1
    19     5    18    1
    20     5     4    1
    21    19    18    1
    22    33    32    1
    23    11    10    1
    24     3     4    2
    25     3    10    1
    26    18    21    1
    27     4    14    1
    28    17    14    1
    29    12    10    1
    30    10    13    1
    31    16    14    1
    32    14    15    1
    33    31    32   ar
    34    31    40   ar
    35    32    34   ar
    36    35    34    1
    37    34    36   ar
    38    40    41    1
    39    40    38   ar
    40    36    38   ar
    41    36    37    1
    42    38    39    1
