@<TRIPOS>MOLECULE
1,2,3,4,5
 34 34 0 0 0
SMALL
GASTEIGER

@<TRIPOS>ATOM
      1 C           6.5403    4.8444    5.8007 C.3     1  UNL1        0.0000
      2 C           6.3470    3.4424    6.0200 C.3     1  UNL1        0.0000
      3 C           5.3941    3.2660    7.0541 C.2     1  UNL1        0.0000
      4 C           4.9856    4.5546    7.4927 C.2     1  UNL1        0.0000
      5 C           5.6696    5.5191    6.7168 C.3     1  UNL1        0.0000
      6 C           7.2063    2.3328    5.4816 C.3     1  UNL1        0.0000
      7 H           8.0368    2.1444    6.1670 H       1  UNL1        0.0000
      8 H           7.6232    2.5879    4.5111 H       1  UNL1        0.0000
      9 H           6.6452    1.4030    5.3887 H       1  UNL1        0.0000
     10 C           5.1194    1.9418    7.7159 C.3     1  UNL1        0.0000
     11 H           4.7902    1.1891    6.9974 H       1  UNL1        0.0000
     12 H           4.3590    2.0261    8.4892 H       1  UNL1        0.0000
     13 H           6.0325    1.5694    8.1862 H       1  UNL1        0.0000
     14 C           4.1681    4.8879    8.7127 C.3     1  UNL1        0.0000
     15 H           4.7630    5.4947    9.3981 H       1  UNL1        0.0000
     16 H           3.8710    3.9876    9.2473 H       1  UNL1        0.0000
     17 H           3.2676    5.4568    8.4678 H       1  UNL1        0.0000
     18 C           5.6445    6.9935    7.0127 C.3     1  UNL1        0.0000
     19 H           4.6855    7.2897    7.4379 H       1  UNL1        0.0000
     20 H           5.8249    7.5847    6.1200 H       1  UNL1        0.0000
     21 H           6.4203    7.2409    7.7418 H       1  UNL1        0.0000
     22 SI          7.9248    5.5430    4.7372 Si      1  UNL1        0.0000
     23 C           7.7262    4.8843    2.9417 C.3     1  UNL1        0.0000
     24 H           8.4397    4.0954    2.7231 H       1  UNL1        0.0000
     25 H           7.8871    5.6705    2.2101 H       1  UNL1        0.0000
     26 H           6.7256    4.4806    2.7833 H       1  UNL1        0.0000
     27 C           8.0120    7.4491    4.6074 C.3     1  UNL1        0.0000
     28 H           8.1701    7.9147    5.5736 H       1  UNL1        0.0000
     29 H           7.1185    7.8801    4.1668 H       1  UNL1        0.0000
     30 H           8.8487    7.7280    3.9737 H       1  UNL1        0.0000
     31 C           9.6266    5.0002    5.4257 C.3     1  UNL1        0.0000
     32 H          10.4345    5.4208    4.8345 H       1  UNL1        0.0000
     33 H           9.7413    3.9218    5.4178 H       1  UNL1        0.0000
     34 H           9.7594    5.3352    6.4499 H       1  UNL1        0.0000
@<TRIPOS>BOND
     1    25    23    1
     2    24    23    1
     3    26    23    1
     4    23    22    1
     5    30    27    1
     6    29    27    1
     7     8     6    1
     8    27    22    1
     9    27    28    1
    10    22    31    1
    11    22     1    1
    12    32    31    1
    13     9     6    1
    14    33    31    1
    15    31    34    1
    16     6     2    1
    17     6     7    1
    18     1     2    1
    19     1     5    1
    20     2     3    1
    21    20    18    1
    22     5    18    1
    23     5     4    1
    24    11    10    1
    25    18    19    1
    26    18    21    1
    27     3     4    2
    28     3    10    1
    29     4    14    1
    30    10    13    1
    31    10    12    1
    32    17    14    1
    33    14    16    1
    34    14    15    1
