@<TRIPOS>MOLECULE
7,8,9,10,11
 35 37 0 0 0
SMALL
GASTEIGER

@<TRIPOS>ATOM
      1 SI          3.3337    3.5993    7.3358 Si      1  UNL1        0.0000
      2 O           4.0166    3.8407    5.8571 O.3     1  UNL1        0.0000
      3 O           2.4466    4.8331    7.9685 O.3     1  UNL1        0.0000
      4 O           4.1293    2.5892    8.3621 O.3     1  UNL1        0.0000
      5 N           5.0551    5.0219    7.9771 N.3     1  UNL1        0.0000
      6 C           0.0303   -0.7726    6.7247 C.3     1  UNL1        0.0000
      7 C           0.4991    0.6497    6.6668 C.2     1  UNL1        0.0000
      8 C           1.5905    1.2019    7.3819 C.3     1  UNL1        0.0000
      9 C           1.8972    2.4887    6.8588 C.3     1  UNL1        0.0000
     10 C           0.9579    2.7423    5.8352 C.3     1  UNL1        0.0000
     11 C           0.0828    1.6305    5.7253 C.2     1  UNL1        0.0000
     12 C           4.9773    4.8106    5.5813 C.3     1  UNL1        0.0000
     13 C           5.8899    5.0114    6.7995 C.3     1  UNL1        0.0000
     14 C           2.9385    5.9032    8.7157 C.3     1  UNL1        0.0000
     15 C           4.3581    6.2593    8.2453 C.3     1  UNL1        0.0000
     16 C           5.3843    2.8298    8.9150 C.3     1  UNL1        0.0000
     17 C           5.5830    4.3363    9.1330 C.3     1  UNL1        0.0000
     18 H          -1.0211   -0.8552    6.4541 H       1  UNL1        0.0000
     19 H           0.1689   -1.1912    7.7199 H       1  UNL1        0.0000
     20 H           0.6120   -1.3706    6.0189 H       1  UNL1        0.0000
     21 H           2.2178    0.6646    8.0802 H       1  UNL1        0.0000
     22 H           0.9992    3.5814    5.1542 H       1  UNL1        0.0000
     23 H          -0.6276    1.4624    4.9251 H       1  UNL1        0.0000
     24 H           4.4715    5.7506    5.3262 H       1  UNL1        0.0000
     25 H           5.5591    4.4821    4.7153 H       1  UNL1        0.0000
     26 H           6.5684    4.1599    6.8674 H       1  UNL1        0.0000
     27 H           6.4833    5.9282    6.6887 H       1  UNL1        0.0000
     28 H           2.9409    5.6196    9.7754 H       1  UNL1        0.0000
     29 H           2.2620    6.7520    8.5847 H       1  UNL1        0.0000
     30 H           4.2861    6.8205    7.3126 H       1  UNL1        0.0000
     31 H           4.8690    6.8797    8.9921 H       1  UNL1        0.0000
     32 H           6.1533    2.4354    8.2376 H       1  UNL1        0.0000
     33 H           5.4502    2.2931    9.8658 H       1  UNL1        0.0000
     34 H           4.9983    4.6382   10.0028 H       1  UNL1        0.0000
     35 H           6.6411    4.5632    9.3176 H       1  UNL1        0.0000
@<TRIPOS>BOND
     1    25    12    1
     2    23    11    1
     3    22    10    1
     4    24    12    1
     5    12     2    1
     6    12    13    1
     7    11    10    1
     8    11     7    2
     9    10     9    1
    10     2     1    1
    11    20     6    1
    12    18     6    1
    13     7     6    1
    14     7     8    1
    15    27    13    1
    16     6    19    1
    17    13    26    1
    18    13     5    1
    19     9     1    1
    20     9     8    1
    21    30    15    1
    22     1     3    1
    23     1     4    1
    24     8    21    1
    25     3    14    1
    26     5    15    1
    27     5    17    1
    28    32    16    1
    29    15    14    1
    30    15    31    1
    31     4    16    1
    32    29    14    1
    33    14    28    1
    34    16    17    1
    35    16    33    1
    36    17    35    1
    37    17    34    1
