@<TRIPOS>MOLECULE
3,4,5,19,20
 34 34 0 0 0
SMALL
GASTEIGER

@<TRIPOS>ATOM
      1 CL          6.6806    5.0988    3.9909 Cl      1  UNL1        0.0000
      2 SI          4.7768    2.1460    4.0207 Si      1  UNL1        0.0000
      3 C           2.8167    4.3929    3.8515 C.2     1  UNL1        0.0000
      4 C           4.1647    3.9267    3.7964 C.2     1  UNL1        0.0000
      5 C           4.9659    5.0988    3.7838 C.2     1  UNL1        0.0000
      6 C           5.9624    1.7282    2.5900 C.3     1  UNL1        0.0000
      7 H           5.4883    1.8981    1.6253 H       1  UNL1        0.0000
      8 H           6.2735    0.6887    2.6288 H       1  UNL1        0.0000
      9 H           6.8594    2.3396    2.6245 H       1  UNL1        0.0000
     10 C           3.2522    1.0043    3.9828 C.3     1  UNL1        0.0000
     11 H           2.6993    1.1037    3.0532 H       1  UNL1        0.0000
     12 H           2.5689    1.2111    4.8017 H       1  UNL1        0.0000
     13 H           3.5571   -0.0334    4.0710 H       1  UNL1        0.0000
     14 C           5.6360    2.0504    5.7198 C.3     1  UNL1        0.0000
     15 H           4.9697    2.3422    6.5269 H       1  UNL1        0.0000
     16 H           6.5101    2.6921    5.7652 H       1  UNL1        0.0000
     17 H           5.9641    1.0347    5.9160 H       1  UNL1        0.0000
     18 H           1.9556    3.7626    4.0324 H       1  UNL1        0.0000
     19 C           2.8167    5.8045    3.8515 C.3     1  UNL1        0.0000
     20 C           4.1647    6.2708    3.7965 C.2     1  UNL1        0.0000
     21 SI          4.7767    8.0515    4.0208 Si      1  UNL1        0.0000
     22 C           5.9624    8.4693    2.5901 C.3     1  UNL1        0.0000
     23 H           5.4884    8.2993    1.6254 H       1  UNL1        0.0000
     24 H           6.2735    9.5087    2.6288 H       1  UNL1        0.0000
     25 H           6.8595    7.8578    2.6247 H       1  UNL1        0.0000
     26 C           3.2522    9.1932    3.9828 C.3     1  UNL1        0.0000
     27 H           2.6993    9.0937    3.0531 H       1  UNL1        0.0000
     28 H           2.5688    8.9864    4.8016 H       1  UNL1        0.0000
     29 H           3.5571   10.2309    4.0709 H       1  UNL1        0.0000
     30 C           5.6358    8.1472    5.7199 C.3     1  UNL1        0.0000
     31 H           4.9695    7.8554    6.5270 H       1  UNL1        0.0000
     32 H           6.5099    7.5054    5.7654 H       1  UNL1        0.0000
     33 H           5.9640    9.1629    5.9161 H       1  UNL1        0.0000
     34 H           1.9556    6.4348    4.0324 H       1  UNL1        0.0000
@<TRIPOS>BOND
     1     7     6    1
     2    23    22    1
     3     6     9    1
     4     6     8    1
     5     6     2    1
     6    22    25    1
     7    22    24    1
     8    22    21    1
     9    27    26    1
    10    11    10    1
    11     5     4    1
    12     5    20    2
    13     5     1    1
    14     4     3    2
    15     4     2    1
    16    20    19    1
    17    20    21    1
    18     3    19    1
    19     3    18    1
    20    19    34    1
    21    26    21    1
    22    26    29    1
    23    26    28    1
    24    10     2    1
    25    10    13    1
    26    10    12    1
    27     2    14    1
    28    21    30    1
    29    14    16    1
    30    14    17    1
    31    14    15    1
    32    30    32    1
    33    30    33    1
    34    30    31    1
