@<TRIPOS>MOLECULE
4,5,6,7,9
 46 46 0 0 0
SMALL
GASTEIGER

@<TRIPOS>ATOM
      1 SI         -1.6262   14.2231   11.0723 Si      1  UNL1        0.0000
      2 SI         -0.8288   17.2410   13.3337 Si      1  UNL1        0.0000
      3 SI         -1.4101   15.8625   16.8946 Si      1  UNL1        0.0000
      4 C          -1.4872   14.3550   12.9655 C.2     1  UNL1        0.0000
      5 C          -1.1657   15.4393   13.8590 C.2     1  UNL1        0.0000
      6 C          -1.4022   14.9855   15.2061 C.2     1  UNL1        0.0000
      7 C          -1.8760   13.6433   15.1204 C.3     1  UNL1        0.0000
      8 H          -2.2745   13.0674   15.9450 H       1  UNL1        0.0000
      9 C          -1.9278   13.2637   13.7704 C.2     1  UNL1        0.0000
     10 H          -2.3712   12.3506   13.3966 H       1  UNL1        0.0000
     11 C          -2.4001   12.5221   10.6669 C.3     1  UNL1        0.0000
     12 H          -3.3946   12.4084   11.0900 H       1  UNL1        0.0000
     13 H          -1.7855   11.7021   11.0281 H       1  UNL1        0.0000
     14 H          -2.4940   12.4029    9.5913 H       1  UNL1        0.0000
     15 C           0.0995   14.2677   10.2511 C.3     1  UNL1        0.0000
     16 H           0.3691   13.2816    9.8838 H       1  UNL1        0.0000
     17 H           0.8741   14.5711   10.9508 H       1  UNL1        0.0000
     18 H           0.1291   14.9468    9.4048 H       1  UNL1        0.0000
     19 C          -2.8384   15.5227   10.3768 C.3     1  UNL1        0.0000
     20 H          -3.8104   15.4558   10.8572 H       1  UNL1        0.0000
     21 H          -2.9884   15.3378    9.3176 H       1  UNL1        0.0000
     22 H          -2.4856   16.5414   10.4841 H       1  UNL1        0.0000
     23 C           0.1415   17.4045   11.6988 C.3     1  UNL1        0.0000
     24 H          -0.3556   16.9553   10.8489 H       1  UNL1        0.0000
     25 H           1.1260   16.9545   11.7810 H       1  UNL1        0.0000
     26 H           0.2872   18.4573   11.4729 H       1  UNL1        0.0000
     27 C          -2.5539   18.0467   13.1607 C.3     1  UNL1        0.0000
     28 H          -3.2260   17.4500   12.5532 H       1  UNL1        0.0000
     29 H          -2.4649   19.0216   12.6918 H       1  UNL1        0.0000
     30 H          -3.0308   18.1910   14.1240 H       1  UNL1        0.0000
     31 C           0.2385   18.2320   14.5659 C.3     1  UNL1        0.0000
     32 H           1.2328   17.8051   14.6535 H       1  UNL1        0.0000
     33 H          -0.1837   18.2901   15.5607 H       1  UNL1        0.0000
     34 H           0.3558   19.2488   14.2013 H       1  UNL1        0.0000
     35 C          -2.6117   17.3452   16.8902 C.3     1  UNL1        0.0000
     36 H          -2.2410   18.1928   16.3260 H       1  UNL1        0.0000
     37 H          -2.7707   17.6779   17.9112 H       1  UNL1        0.0000
     38 H          -3.5811   17.0731   16.4828 H       1  UNL1        0.0000
     39 C           0.3632   16.3155   17.4462 C.3     1  UNL1        0.0000
     40 H           1.0769   16.2297   16.6308 H       1  UNL1        0.0000
     41 H           0.6967   15.6458   18.2338 H       1  UNL1        0.0000
     42 H           0.4202   17.3270   17.8364 H       1  UNL1        0.0000
     43 C          -2.1077   14.6310   18.1803 C.3     1  UNL1        0.0000
     44 H          -1.5001   13.7331   18.2515 H       1  UNL1        0.0000
     45 H          -3.1270   14.3301   17.9531 H       1  UNL1        0.0000
     46 H          -2.1206   15.0883   19.1655 H       1  UNL1        0.0000
@<TRIPOS>BOND
     1    21    19    1
     2    18    15    1
     3    14    11    1
     4    16    15    1
     5    15    17    1
     6    15     1    1
     7    19    22    1
     8    19    20    1
     9    19     1    1
    10    11    13    1
    11    11     1    1
    12    11    12    1
    13    24    23    1
    14     1     4    1
    15    26    23    1
    16    23    25    1
    17    23     2    1
    18    28    27    1
    19    29    27    1
    20     4     9    2
    21     4     5    1
    22    27     2    1
    23    27    30    1
    24     2     5    1
    25     2    31    1
    26    10     9    1
    27     9     7    1
    28     5     6    2
    29    34    31    1
    30    31    32    1
    31    31    33    1
    32     7     6    1
    33     7     8    1
    34     6     3    1
    35    36    35    1
    36    38    35    1
    37    40    39    1
    38    35     3    1
    39    35    37    1
    40     3    39    1
    41     3    43    1
    42    39    42    1
    43    39    41    1
    44    45    43    1
    45    43    44    1
    46    43    46    1
