@<TRIPOS>MOLECULE
1,3,5,7,9
 10 10 0 0 0
SMALL
GASTEIGER

@<TRIPOS>ATOM
      1 C           0.0908    1.5028    8.2384 C.2     1  UNL1       -0.0763
      2 H           0.4698    0.7687    8.9301 H       1  UNL1        0.0578
      3 C           0.8135    2.1057    7.1674 C.3     1  UNL1        0.0054
      4 H           1.8305    1.8828    6.8907 H       1  UNL1        0.0394
      5 C          -0.1111    2.8312    6.3715 C.2     1  UNL1       -0.0763
      6 H           0.1163    3.3343    5.4470 H       1  UNL1        0.0578
      7 C          -1.3634    2.7681    6.9933 C.2     1  UNL1       -0.0654
      8 H          -2.2802    3.1850    6.6121 H       1  UNL1        0.0615
      9 C          -1.2448    1.9390    8.1424 C.2     1  UNL1       -0.0654
     10 H          -2.0611    1.6190    8.7713 H       1  UNL1        0.0615
@<TRIPOS>BOND
     1     6     5    1
     2     5     7    2
     3     5     3    1
     4     8     7    1
     5     4     3    1
     6     7     9    1
     7     3     1    1
     8     9     1    2
     9     9    10    1
    10     1     2    1
