@<TRIPOS>MOLECULE
1,3,5,7,9
 10 10 0 0 0
SMALL
GASTEIGER

@<TRIPOS>ATOM
      1 C           4.4226    6.7901    6.7193 C.2     1  UNL1       -0.0763
      2 H           4.5129    6.0329    7.4789 H       1  UNL1        0.0578
      3 C           3.2332    7.4819    6.3594 C.3     1  UNL1        0.0054
      4 H           2.2619    7.3506    6.8053 H       1  UNL1        0.0394
      5 C           3.5923    8.5488    5.4978 C.2     1  UNL1       -0.0763
      6 H           2.9304    9.3233    5.1466 H       1  UNL1        0.0578
      7 C           4.9670    8.4606    5.2498 C.2     1  UNL1       -0.0654
      8 H           5.5529    9.1595    4.6748 H       1  UNL1        0.0615
      9 C           5.4893    7.3756    6.0091 C.2     1  UNL1       -0.0654
     10 H           6.5344    7.1334    6.1186 H       1  UNL1        0.0615
@<TRIPOS>BOND
     1     8     7    1
     2     6     5    1
     3     7     5    2
     4     7     9    1
     5     5     3    1
     6     9    10    1
     7     9     1    2
     8     3     1    1
     9     3     4    1
    10     1     2    1
