@<TRIPOS>MOLECULE
1,2,3,4,5
 10 10 0 0 0
SMALL
GASTEIGER

@<TRIPOS>ATOM
      1 C           3.8140    2.3207   10.1390 C.2     1  UNL1       -0.0763
      2 C           4.8112    3.2815   10.3981 C.2     1  UNL1       -0.0654
      3 C           5.7332    3.2700    9.3239 C.2     1  UNL1       -0.0654
      4 C           5.3177    2.2766    8.4111 C.2     1  UNL1       -0.0763
      5 C           4.1347    1.6873    8.9099 C.3     1  UNL1        0.0054
      6 H           3.0459    2.0066   10.8232 H       1  UNL1        0.0578
      7 H           4.9167    3.8460   11.3100 H       1  UNL1        0.0615
      8 H           6.6628    3.8101    9.2793 H       1  UNL1        0.0615
      9 H           5.8704    1.9563    7.5449 H       1  UNL1        0.0578
     10 H           3.6451    0.8151    8.5122 H       1  UNL1        0.0394
@<TRIPOS>BOND
     1     9     4    1
     2     4     5    1
     3     4     3    2
     4    10     5    1
     5     5     1    1
     6     8     3    1
     7     3     2    1
     8     1     2    2
     9     1     6    1
    10     2     7    1
