@<TRIPOS>MOLECULE
1,2,3,4,5
 25 25 0 0 0
SMALL
GASTEIGER

@<TRIPOS>ATOM
      1 C          14.0237    6.0438    7.9300 C.2     1  UNL1       -0.0584
      2 C          13.8838    7.1310    7.0323 C.2     1  UNL1       -0.0477
      3 C          12.5034    7.5188    7.0053 C.2     1  UNL1       -0.0477
      4 C          11.7956    6.6558    7.8787 C.2     1  UNL1       -0.0584
      5 C          12.7264    5.7092    8.4139 C.3     1  UNL1        0.0231
      6 C          15.2951    5.4232    8.4090 C.3     1  UNL1       -0.0424
      7 H          16.1583    5.8837    7.9355 H       1  UNL1        0.0275
      8 H          15.3022    4.3553    8.1960 H       1  UNL1        0.0275
      9 H          15.3827    5.5552    9.4879 H       1  UNL1        0.0275
     10 C          14.9901    7.9145    6.4033 C.3     1  UNL1       -0.0395
     11 H          15.4025    8.6204    7.1277 H       1  UNL1        0.0278
     12 H          14.6195    8.4790    5.5517 H       1  UNL1        0.0278
     13 H          15.7946    7.2662    6.0636 H       1  UNL1        0.0278
     14 C          12.0047    8.7802    6.3705 C.3     1  UNL1       -0.0395
     15 H          10.9356    8.9016    6.5253 H       1  UNL1        0.0278
     16 H          12.2069    8.7939    5.2992 H       1  UNL1        0.0278
     17 H          12.5078    9.6412    6.8144 H       1  UNL1        0.0278
     18 C          10.3733    6.7913    8.3143 C.3     1  UNL1       -0.0424
     19 H          10.3176    7.4498    9.1836 H       1  UNL1        0.0275
     20 H           9.9667    5.8235    8.5981 H       1  UNL1        0.0275
     21 H           9.7471    7.2093    7.5299 H       1  UNL1        0.0275
     22 C          12.4542    4.6549    9.4351 C.3     1  UNL1       -0.0510
     23 H          12.7085    5.0096   10.4354 H       1  UNL1        0.0242
     24 H          13.0528    3.7737    9.2159 H       1  UNL1        0.0242
     25 H          11.4071    4.3632    9.4280 H       1  UNL1        0.0242
@<TRIPOS>BOND
     1    16    14    1
     2    12    10    1
     3    13    10    1
     4    14    15    1
     5    14    17    1
     6    14     3    1
     7    10     2    1
     8    10    11    1
     9     3     2    1
    10     3     4    2
    11     2     1    2
    12    21    18    1
    13     4    18    1
    14     4     5    1
    15     1     6    1
    16     1     5    1
    17     7     6    1
    18     8     6    1
    19    18    20    1
    20    18    19    1
    21     6     9    1
    22     5    22    1
    23    24    22    1
    24    25    22    1
    25    22    23    1
