@<TRIPOS>MOLECULE
1,3,5,7,9
 10 10 0 0 0
SMALL
GASTEIGER

@<TRIPOS>ATOM
      1 C           4.3241   59.5781    7.1907 C.2     1  UNL1       -0.0763
      2 H           3.5105   59.0110    7.6222 H       1  UNL1        0.0578
      3 C           5.5693   59.8396    7.8270 C.3     1  UNL1        0.0054
      4 H           5.8197   59.5580    8.8423 H       1  UNL1        0.0394
      5 C           6.2928   60.7524    7.0083 C.2     1  UNL1       -0.0763
      6 H           7.1924   61.2816    7.2887 H       1  UNL1        0.0578
      7 C           5.5176   60.9983    5.8534 C.2     1  UNL1       -0.0654
      8 H           5.7313   61.7372    5.0895 H       1  UNL1        0.0615
      9 C           4.2953   60.2661    5.9689 C.2     1  UNL1       -0.0654
     10 H           3.4342   60.3831    5.3260 H       1  UNL1        0.0615
@<TRIPOS>BOND
     1     8     7    1
     2    10     9    1
     3     7     9    1
     4     7     5    2
     5     9     1    2
     6     5     6    1
     7     5     3    1
     8     1     2    1
     9     1     3    1
    10     3     4    1
