@<TRIPOS>MOLECULE
1,2,3,4,5
 10 10 0 0 0
SMALL
GASTEIGER

@<TRIPOS>ATOM
      1 C          -0.4768    0.8640    4.1404 C.2     1  UNL1       -0.0763
      2 C          -0.2184    0.7423    2.7443 C.2     1  UNL1       -0.0654
      3 C          -1.2577    1.3697    2.0568 C.2     1  UNL1       -0.0654
      4 C          -2.1995    1.8402    3.0065 C.2     1  UNL1       -0.0763
      5 C          -1.7429    1.5101    4.2985 C.3     1  UNL1        0.0054
      6 H           0.0319    0.2932    4.9112 H       1  UNL1        0.0578
      7 H           0.5684    0.1480    2.3083 H       1  UNL1        0.0615
      8 H          -1.3892    1.3874    0.9840 H       1  UNL1        0.0615
      9 H          -3.1838    2.2274    2.7738 H       1  UNL1        0.0578
     10 H          -2.3159    1.5607    5.2124 H       1  UNL1        0.0394
@<TRIPOS>BOND
     1     8     3    1
     2     3     2    1
     3     3     4    2
     4     7     2    1
     5     2     1    2
     6     9     4    1
     7     4     5    1
     8     1     5    1
     9     1     6    1
    10     5    10    1
