@<TRIPOS>MOLECULE
1,2,3,4,5
 10 10 0 0 0
SMALL
GASTEIGER

@<TRIPOS>ATOM
      1 C          -1.4110    4.4899    2.1606 C.3     1  UNL1        0.0054
      2 C          -1.4951    5.0265    3.4755 C.2     1  UNL1       -0.0763
      3 C          -0.1993    5.4107    3.8574 C.2     1  UNL1       -0.0654
      4 C           0.6920    5.1282    2.7944 C.2     1  UNL1       -0.0654
      5 C          -0.0561    4.5436    1.7427 C.2     1  UNL1       -0.0763
      6 H          -2.2564    4.3000    1.5100 H       1  UNL1        0.0394
      7 H          -2.4034    5.2365    4.0205 H       1  UNL1        0.0578
      8 H           0.0592    5.9514    4.7596 H       1  UNL1        0.0615
      9 H           1.7234    5.4555    2.7405 H       1  UNL1        0.0615
     10 H           0.2965    4.3872    0.7348 H       1  UNL1        0.0578
@<TRIPOS>BOND
     1    10     5    1
     2     6     1    1
     3     5     1    1
     4     5     4    2
     5     1     2    1
     6     9     4    1
     7     4     3    1
     8     2     3    2
     9     2     7    1
    10     3     8    1
