@<TRIPOS>MOLECULE
1,3,5,7,9
 10 10 0 0 0
SMALL
GASTEIGER

@<TRIPOS>ATOM
      1 C           1.5673    0.1634   15.6740 C.2     1  UNL1       -0.0837
      2 H           1.0037   -0.7373   15.8734 H       1  UNL1        0.0572
      3 C           2.7507    0.5566   16.3314 C.2     1  UNL1       -0.0837
      4 H           3.2447    0.0139   17.1260 H       1  UNL1        0.0572
      5 C           3.0584    1.8714   15.9248 C.3     1  UNL1       -0.0127
      6 H           3.8122    2.5010   16.3802 H       1  UNL1        0.0352
      7 C           2.0725    2.2883   15.0063 C.3     1  UNL1       -0.0235
      8 H           1.9342    3.2977   14.6365 H       1  UNL1        0.0315
      9 C           1.1461    1.2285   14.8564 C.3     1  UNL1       -0.0127
     10 H           0.1980    1.2861   14.3403 H       1  UNL1        0.0352
@<TRIPOS>BOND
     1    10     9    1
     2     8     7    1
     3     9     7    1
     4     9     1    1
     5     7     5    1
     6     1     2    1
     7     1     3    2
     8     5     3    1
     9     5     6    1
    10     3     4    1
