@<TRIPOS>MOLECULE
1,3,4,5,6
 22 22 0 0 0
SMALL
GASTEIGER

@<TRIPOS>ATOM
      1 C           5.5649    5.4148    9.2842 C.3     1  UNL1        0.0119
      2 H           4.6976    5.9883    8.9854 H       1  UNL1        0.0400
      3 C           6.8178    5.4063    8.6126 C.2     1  UNL1       -0.0615
      4 C           7.7480    4.7342    9.4442 C.2     1  UNL1       -0.0480
      5 C           7.0633    4.2972   10.6088 C.2     1  UNL1       -0.0480
      6 C           5.7127    4.7380   10.5163 C.2     1  UNL1       -0.0615
      7 C           7.1511    6.2114    7.3855 C.3     1  UNL1       -0.0426
      8 H           7.6142    7.1596    7.6723 H       1  UNL1        0.0275
      9 H           6.2502    6.4324    6.8163 H       1  UNL1        0.0275
     10 H           7.8519    5.6907    6.7306 H       1  UNL1        0.0275
     11 C           9.2395    4.7483    9.2472 C.3     1  UNL1       -0.0395
     12 H           9.7271    3.9264    9.7699 H       1  UNL1        0.0278
     13 H           9.6555    5.6790    9.6427 H       1  UNL1        0.0278
     14 H           9.5059    4.6951    8.1918 H       1  UNL1        0.0278
     15 C           7.6935    3.7249   11.8501 C.3     1  UNL1       -0.0395
     16 H           7.0038    3.0623   12.3724 H       1  UNL1        0.0278
     17 H           7.9667    4.5293   12.5385 H       1  UNL1        0.0278
     18 H           8.5998    3.1650   11.6209 H       1  UNL1        0.0278
     19 C           4.7018    4.7183   11.6301 C.3     1  UNL1       -0.0426
     20 H           4.6653    3.7523   12.1343 H       1  UNL1        0.0275
     21 H           3.7080    4.9466   11.2483 H       1  UNL1        0.0275
     22 H           4.9569    5.4715   12.3800 H       1  UNL1        0.0275
@<TRIPOS>BOND
     1    10     7    1
     2     9     7    1
     3     7     8    1
     4     7     3    1
     5    14    11    1
     6     3     1    1
     7     3     4    2
     8     2     1    1
     9    11     4    1
    10    11    13    1
    11    11    12    1
    12     1     6    1
    13     4     5    1
    14     6     5    2
    15     6    19    1
    16     5    15    1
    17    21    19    1
    18    18    15    1
    19    19    20    1
    20    19    22    1
    21    15    16    1
    22    15    17    1
