@<TRIPOS>MOLECULE
1,2,4,6,8
 13 13 0 0 0
SMALL
GASTEIGER

@<TRIPOS>ATOM
      1 C           3.6708    2.0586    5.3343 C.2     1  UNL1       -0.0541
      2 C           4.4346    3.2291    5.1047 C.2     1  UNL1       -0.0734
      3 H           5.3418    3.4970    5.6279 H       1  UNL1        0.0581
      4 C           3.7031    4.0757    4.2485 C.3     1  UNL1        0.0057
      5 H           3.9607    5.0970    4.0020 H       1  UNL1        0.0394
      6 C           2.4839    3.4335    3.9373 C.2     1  UNL1       -0.0761
      7 H           1.6405    3.8888    3.4356 H       1  UNL1        0.0578
      8 C           2.4655    2.1929    4.6132 C.2     1  UNL1       -0.0625
      9 H           1.6038    1.5444    4.7079 H       1  UNL1        0.0617
     10 C           3.9834    0.9963    6.3546 C.3     1  UNL1       -0.0400
     11 H           3.9163    1.4163    7.3607 H       1  UNL1        0.0277
     12 H           4.9910    0.5983    6.2289 H       1  UNL1        0.0277
     13 H           3.2691    0.1757    6.2897 H       1  UNL1        0.0277
@<TRIPOS>BOND
     1     7     6    1
     2     6     4    1
     3     6     8    2
     4     5     4    1
     5     4     2    1
     6     8     9    1
     7     8     1    1
     8     2     1    2
     9     2     3    1
    10     1    10    1
    11    12    10    1
    12    13    10    1
    13    10    11    1
