@<TRIPOS>MOLECULE
1,2,3,4,5
 25 25 0 0 0
SMALL
GASTEIGER

@<TRIPOS>ATOM
      1 C           3.0807   -2.1697   10.2057 C.2     1  UNL1       -0.0584
      2 C           1.8029   -1.7419   10.6442 C.3     1  UNL1        0.0231
      3 C           1.9822   -0.9559   11.8177 C.2     1  UNL1       -0.0584
      4 C           3.3745   -0.9191   12.1149 C.2     1  UNL1       -0.0477
      5 C           4.0550   -1.6554   11.1128 C.2     1  UNL1       -0.0477
      6 C           3.3510   -3.2065    9.1495 C.3     1  UNL1       -0.0424
      7 H           3.2845   -4.2079    9.5833 H       1  UNL1        0.0275
      8 H           4.3482   -3.0931    8.7272 H       1  UNL1        0.0275
      9 H           2.6272   -3.1488    8.3376 H       1  UNL1        0.0275
     10 C           0.4804   -2.2421   10.1328 C.3     1  UNL1       -0.0510
     11 H           0.5581   -2.5840    9.1021 H       1  UNL1        0.0242
     12 H          -0.2849   -1.4688   10.1786 H       1  UNL1        0.0242
     13 H           0.1395   -3.0863   10.7377 H       1  UNL1        0.0242
     14 C           0.8786   -0.5200   12.7435 C.3     1  UNL1       -0.0424
     15 H           0.5928   -1.3471   13.3992 H       1  UNL1        0.0275
     16 H          -0.0064   -0.2133   12.1883 H       1  UNL1        0.0275
     17 H           1.1928    0.3101   13.3755 H       1  UNL1        0.0275
     18 C           3.9592   -0.4259   13.4115 C.3     1  UNL1       -0.0395
     19 H           3.4604    0.4797   13.7578 H       1  UNL1        0.0278
     20 H           5.0244   -0.2178   13.3184 H       1  UNL1        0.0278
     21 H           3.8393   -1.1865   14.1876 H       1  UNL1        0.0278
     22 C           5.5027   -2.0704   11.1273 C.3     1  UNL1       -0.0395
     23 H           5.5885   -3.1164   11.4321 H       1  UNL1        0.0278
     24 H           6.0785   -1.4733   11.8318 H       1  UNL1        0.0278
     25 H           5.9632   -1.9755   10.1422 H       1  UNL1        0.0278
@<TRIPOS>BOND
     1     9     6    1
     2     8     6    1
     3    11    10    1
     4     6     7    1
     5     6     1    1
     6    10    12    1
     7    10     2    1
     8    10    13    1
     9    25    22    1
    10     1     2    1
    11     1     5    2
    12     2     3    1
    13     5    22    1
    14     5     4    1
    15    22    23    1
    16    22    24    1
    17     3     4    2
    18     3    14    1
    19     4    18    1
    20    16    14    1
    21    14    17    1
    22    14    15    1
    23    20    18    1
    24    18    19    1
    25    18    21    1
