@<TRIPOS>MOLECULE
1,3,5,7,9
 10 10 0 0 0
SMALL
GASTEIGER

@<TRIPOS>ATOM
      1 C           7.2145    4.4733    5.0841 C.2     1  UNL1       -0.0763
      2 H           7.7439    3.6119    5.4644 H       1  UNL1        0.0578
      3 C           7.8003    5.6388    4.5528 C.3     1  UNL1        0.0054
      4 H           8.8616    5.8302    4.4529 H       1  UNL1        0.0394
      5 C           6.7616    6.4106    3.9574 C.2     1  UNL1       -0.0763
      6 H           6.9096    7.2926    3.3447 H       1  UNL1        0.0578
      7 C           5.5446    5.7191    4.1142 C.2     1  UNL1       -0.0654
      8 H           4.5941    6.0003    3.6812 H       1  UNL1        0.0615
      9 C           5.8137    4.5325    4.8251 C.2     1  UNL1       -0.0654
     10 H           5.1100    3.7290    4.9947 H       1  UNL1        0.0615
@<TRIPOS>BOND
     1     6     5    1
     2     8     7    1
     3     5     7    2
     4     5     3    1
     5     7     9    1
     6     4     3    1
     7     3     1    1
     8     9    10    1
     9     9     1    2
    10     1     2    1
