@<TRIPOS>MOLECULE
1,2,3,4,5
 25 25 0 0 0
SMALL
GASTEIGER

@<TRIPOS>ATOM
      1 C          16.4061   -5.3548   21.2078 C.2     1  UNL1       -0.0477
      2 C          16.2374   -4.9598   19.8137 C.2     1  UNL1       -0.0477
      3 C          14.8884   -4.7557   19.5787 C.2     1  UNL1       -0.0584
      4 C          14.1783   -4.9507   20.8540 C.3     1  UNL1        0.0231
      5 C          15.1376   -5.4635   21.8070 C.2     1  UNL1       -0.0584
      6 C          17.7055   -5.8362   21.7537 C.3     1  UNL1       -0.0395
      7 C          17.3383   -4.9492   18.8075 C.3     1  UNL1       -0.0395
      8 C          14.2116   -4.5381   18.2675 C.3     1  UNL1       -0.0424
      9 C          12.7009   -5.1547   20.9541 C.3     1  UNL1       -0.0510
     10 C          14.7981   -6.0769   23.1263 C.3     1  UNL1       -0.0424
     11 H          17.6219   -6.1156   22.7998 H       1  UNL1        0.0278
     12 H          18.0353   -6.7080   21.1863 H       1  UNL1        0.0278
     13 H          18.4793   -5.0741   21.6725 H       1  UNL1        0.0278
     14 H          18.2696   -4.5969   19.2455 H       1  UNL1        0.0278
     15 H          17.5109   -5.9609   18.4364 H       1  UNL1        0.0278
     16 H          17.0942   -4.3172   17.9559 H       1  UNL1        0.0278
     17 H          13.3668   -3.8587   18.3596 H       1  UNL1        0.0275
     18 H          14.9005   -4.1487   17.5218 H       1  UNL1        0.0275
     19 H          13.8282   -5.4920   17.9017 H       1  UNL1        0.0275
     20 H          12.1511   -4.4246   20.3658 H       1  UNL1        0.0242
     21 H          12.4534   -6.1465   20.5724 H       1  UNL1        0.0242
     22 H          12.3672   -5.1019   21.9864 H       1  UNL1        0.0242
     23 H          14.0466   -5.4916   23.6516 H       1  UNL1        0.0275
     24 H          14.3996   -7.0798   22.9679 H       1  UNL1        0.0275
     25 H          15.6763   -6.1517   23.7613 H       1  UNL1        0.0275
@<TRIPOS>BOND
     1    18     8    1
     2    19     8    1
     3    16     7    1
     4     8    17    1
     5     8     3    1
     6    15     7    1
     7     7    14    1
     8     7     2    1
     9     3     2    2
    10     3     4    1
    11     2     1    1
    12    20     9    1
    13    21     9    1
    14     4     9    1
    15     4     5    1
    16     9    22    1
    17    12     6    1
    18     1     6    1
    19     1     5    2
    20    13     6    1
    21     6    11    1
    22     5    10    1
    23    24    10    1
    24    10    23    1
    25    10    25    1
