@<TRIPOS>MOLECULE
1,3,5,7,9
 10 10 0 0 0
SMALL
GASTEIGER

@<TRIPOS>ATOM
      1 C           0.3603    0.7607    2.9981 C.3     1  UNL1       -0.0127
      2 H          -0.3689    0.1089    3.4493 H       1  UNL1        0.0352
      3 C           0.2863    1.2979    1.6917 C.3     1  UNL1       -0.0235
      4 H          -0.5012    1.1193    0.9791 H       1  UNL1        0.0315
      5 C           1.5075    1.9626    1.4292 C.3     1  UNL1       -0.0127
      6 H           1.7991    2.3851    0.4816 H       1  UNL1        0.0352
      7 C           2.3276    1.8470    2.5708 C.2     1  UNL1       -0.0837
      8 H           3.3540    2.1609    2.6491 H       1  UNL1        0.0572
      9 C           1.6146    1.1032    3.5450 C.2     1  UNL1       -0.0837
     10 H           2.0119    0.7610    4.4846 H       1  UNL1        0.0572
@<TRIPOS>BOND
     1     6     5    1
     2     4     3    1
     3     5     3    1
     4     5     7    1
     5     3     1    1
     6     7     8    1
     7     7     9    2
     8     1     2    1
     9     1     9    1
    10     9    10    1
