@<TRIPOS>MOLECULE
1,3,5,7,9
 10 10 0 0 0
SMALL
GASTEIGER

@<TRIPOS>ATOM
      1 C           8.8014    9.1018    0.4947 C.2     1  UNL1       -0.0654
      2 H           7.8482    9.5744    0.6551 H       1  UNL1        0.0615
      3 C           9.1063    8.1665   -0.5152 C.2     1  UNL1       -0.0763
      4 H           8.4261    7.8099   -1.2713 H       1  UNL1        0.0578
      5 C          10.4966    7.9017   -0.4710 C.3     1  UNL1        0.0054
      6 H          11.0507    7.3165   -1.1856 H       1  UNL1        0.0394
      7 C          11.0489    8.6794    0.5716 C.2     1  UNL1       -0.0763
      8 H          12.0991    8.7797    0.7908 H       1  UNL1        0.0578
      9 C          10.0033    9.4099    1.1776 C.2     1  UNL1       -0.0654
     10 H          10.1157   10.1645    1.9360 H       1  UNL1        0.0615
@<TRIPOS>BOND
     1     4     3    1
     2     6     5    1
     3     3     5    1
     4     3     1    2
     5     5     7    1
     6     1     2    1
     7     1     9    1
     8     7     8    1
     9     7     9    2
    10     9    10    1
