@<TRIPOS>MOLECULE
1,2,3,4,5
 25 25 0 0 0
SMALL
GASTEIGER

@<TRIPOS>ATOM
      1 C           2.4587   10.9903    0.8016 C.2     1  UNL1       -0.0658
      2 C           3.4986   10.4702    1.6215 C.2     1  UNL1       -0.0658
      3 C           4.6142   11.3432    1.5217 C.3     1  UNL1        0.0052
      4 C           4.2754   12.3903    0.6128 C.3     1  UNL1       -0.0053
      5 C           2.9479   12.1571    0.1614 C.3     1  UNL1        0.0052
      6 C           5.9654   11.0663    2.1108 C.3     1  UNL1       -0.0545
      7 H           6.5975   11.9502    2.0708 H       1  UNL1        0.0239
      8 H           6.4546   10.2649    1.5519 H       1  UNL1        0.0239
      9 H           5.8850   10.7577    3.1544 H       1  UNL1        0.0239
     10 C           3.5483    9.0944    2.2173 C.3     1  UNL1       -0.0430
     11 H           2.5828    8.7715    2.6021 H       1  UNL1        0.0275
     12 H           4.2815    9.0372    3.0195 H       1  UNL1        0.0275
     13 H           3.8509    8.3846    1.4429 H       1  UNL1        0.0275
     14 C           1.1787   10.3112    0.4106 C.3     1  UNL1       -0.0430
     15 H           1.0334    9.3838    0.9600 H       1  UNL1        0.0275
     16 H           1.2103   10.0675   -0.6535 H       1  UNL1        0.0275
     17 H           0.3152   10.9591    0.5737 H       1  UNL1        0.0275
     18 C           5.1757   13.4669    0.0875 C.3     1  UNL1       -0.0574
     19 H           6.0629   13.5746    0.7079 H       1  UNL1        0.0236
     20 H           4.6523   14.4252    0.0722 H       1  UNL1        0.0236
     21 H           5.4888   13.2288   -0.9314 H       1  UNL1        0.0236
     22 C           2.2542   12.8592   -0.9648 C.3     1  UNL1       -0.0545
     23 H           2.6748   13.8481   -1.1300 H       1  UNL1        0.0239
     24 H           1.1885   12.9670   -0.7650 H       1  UNL1        0.0239
     25 H           2.3740   12.2747   -1.8809 H       1  UNL1        0.0239
@<TRIPOS>BOND
     1    25    22    1
     2    23    22    1
     3    22    24    1
     4    22     5    1
     5    21    18    1
     6    16    14    1
     7    20    18    1
     8    18     4    1
     9    18    19    1
    10     5     4    1
    11     5     1    1
    12    14    17    1
    13    14     1    1
    14    14    15    1
    15     4     3    1
    16     1     2    2
    17    13    10    1
    18     3     2    1
    19     3     6    1
    20     8     6    1
    21     2    10    1
    22     7     6    1
    23     6     9    1
    24    10    11    1
    25    10    12    1
