@<TRIPOS>MOLECULE
2,3,5,7,9
 26 26 0 0 0
SMALL
GASTEIGER

@<TRIPOS>ATOM
      1 SI          1.3608   15.1629    4.7821 Si      1  UNL1        0.0000
      2 C           1.6735   13.3671    4.2950 C.2     1  UNL1        0.0000
      3 C           0.8549   12.5521    3.4642 C.3     1  UNL1        0.0000
      4 H          -0.0555   12.8799    2.9766 H       1  UNL1        0.0000
      5 C           1.3320   11.2322    3.5200 C.2     1  UNL1        0.0000
      6 H           0.8308   10.3639    3.1181 H       1  UNL1        0.0000
      7 C           2.4764   11.2171    4.3510 C.2     1  UNL1        0.0000
      8 H           3.0120   10.3383    4.6844 H       1  UNL1        0.0000
      9 C           2.6599   12.5188    4.8479 C.2     1  UNL1        0.0000
     10 H           3.3948   12.8119    5.5867 H       1  UNL1        0.0000
     11 C           0.9484   15.0821    6.6688 C.3     1  UNL1        0.0000
     12 H           1.8403   14.7892    7.2218 H       1  UNL1        0.0000
     13 H           0.6583   16.0750    7.0065 H       1  UNL1        0.0000
     14 C          -0.1441   14.1130    6.9337 C.2     1  UNL1        0.0000
     15 H           0.1334   13.0693    6.8504 H       1  UNL1        0.0000
     16 C          -1.3937   14.4421    7.2111 C.2     1  UNL1        0.0000
     17 H          -1.6990   15.4724    7.2948 H       1  UNL1        0.0000
     18 H          -2.1603   13.7029    7.3715 H       1  UNL1        0.0000
     19 C           2.8824   16.2884    4.5530 C.3     1  UNL1        0.0000
     20 H           2.6892   17.2868    4.9338 H       1  UNL1        0.0000
     21 H           3.1460   16.3752    3.5030 H       1  UNL1        0.0000
     22 H           3.7510   15.8949    5.0741 H       1  UNL1        0.0000
     23 C          -0.1818   15.8267    3.8769 C.3     1  UNL1        0.0000
     24 H          -1.0682   15.2621    4.1517 H       1  UNL1        0.0000
     25 H          -0.0664   15.7809    2.7989 H       1  UNL1        0.0000
     26 H          -0.3590   16.8629    4.1463 H       1  UNL1        0.0000
@<TRIPOS>BOND
     1    25    23    1
     2     4     3    1
     3     6     5    1
     4     3     5    1
     5     3     2    1
     6    21    19    1
     7     5     7    2
     8    23    26    1
     9    23    24    1
    10    23     1    1
    11     2     1    1
    12     2     9    2
    13     7     8    1
    14     7     9    1
    15    19     1    1
    16    19    20    1
    17    19    22    1
    18     1    11    1
    19     9    10    1
    20    11    14    1
    21    11    13    1
    22    11    12    1
    23    15    14    1
    24    14    16    2
    25    16    17    1
    26    16    18    1
