@<TRIPOS>MOLECULE
17,20,22,24,26
 31 32 0 0 0
SMALL
GASTEIGER

@<TRIPOS>ATOM
      1 SI          0.9521   15.3056    3.4955 Si      1  UNL1        0.0000
      2 C           3.9525   12.3586    5.0509 C.ar    1  UNL1        0.0000
      3 C           5.1320   12.7905    5.6592 C.ar    1  UNL1        0.0000
      4 H           5.3259   13.8498    5.7437 H       1  UNL1        0.0000
      5 C           4.6045   10.0759    5.4340 C.ar    1  UNL1        0.0000
      6 H           4.4017    9.0182    5.3485 H       1  UNL1        0.0000
      7 C           6.0350   11.8664    6.1480 C.ar    1  UNL1        0.0000
      8 H           6.9468   12.2040    6.6190 H       1  UNL1        0.0000
      9 C          -0.7180   14.8971    4.3088 C.3     1  UNL1        0.0000
     10 H          -1.0555   13.9102    4.0091 H       1  UNL1        0.0000
     11 H          -1.4795   15.6144    4.0200 H       1  UNL1        0.0000
     12 H          -0.6391   14.9016    5.3919 H       1  UNL1        0.0000
     13 C           3.6947   10.9914    4.9414 C.ar    1  UNL1        0.0000
     14 H           2.7798   10.6616    4.4711 H       1  UNL1        0.0000
     15 C           5.7746   10.5095    6.0373 C.ar    1  UNL1        0.0000
     16 H           6.4829    9.7903    6.4214 H       1  UNL1        0.0000
     17 C           2.8423   17.5599    3.7042 C.2     1  UNL1        0.0000
     18 H           3.5943   17.0819    3.0897 H       1  UNL1        0.0000
     19 C           3.0202   13.3003    4.5552 C.1     1  UNL1        0.0000
     20 C           1.0100   17.8472    5.0182 C.2     1  UNL1        0.0000
     21 H           0.0819   17.6580    5.5449 H       1  UNL1        0.0000
     22 C           3.0205   18.7499    4.4447 C.2     1  UNL1        0.0000
     23 H           3.9205   19.3495    4.4830 H       1  UNL1        0.0000
     24 C           1.5917   16.9946    4.0409 C.3     1  UNL1        0.0000
     25 C           2.2262   14.1087    4.1315 C.1     1  UNL1        0.0000
     26 C           1.8969   18.9090    5.2781 C.2     1  UNL1        0.0000
     27 H           1.7682   19.6726    6.0350 H       1  UNL1        0.0000
     28 C           0.9140   15.1492    1.5936 C.3     1  UNL1        0.0000
     29 H           1.9111   15.2261    1.1683 H       1  UNL1        0.0000
     30 H           0.2898   15.9211    1.1511 H       1  UNL1        0.0000
     31 H           0.5118   14.1849    1.3001 H       1  UNL1        0.0000
@<TRIPOS>BOND
     1    30    28    1
     2    29    28    1
     3    31    28    1
     4    28     1    1
     5    18    17    1
     6     1    24    1
     7     1    25    1
     8     1     9    1
     9    17    24    1
    10    17    22    2
    11    10     9    1
    12    11     9    1
    13    24    20    1
    14    25    19    3
    15     9    12    1
    16    22    23    1
    17    22    26    1
    18    14    13    1
    19    19     2    1
    20    13     2   ar
    21    13     5   ar
    22    20    26    2
    23    20    21    1
    24     2     3   ar
    25    26    27    1
    26     6     5    1
    27     5    15   ar
    28     3     4    1
    29     3     7   ar
    30    15     7   ar
    31    15    16    1
    32     7     8    1
