@<TRIPOS>MOLECULE
11,13,15,17,19
 31 32 0 0 0
SMALL
GASTEIGER

@<TRIPOS>ATOM
      1 SI          2.4230   22.4087    2.2446 Si      1  UNL1        0.0000
      2 C           5.6166   23.8205   -0.5689 C.ar    1  UNL1        0.0000
      3 C           7.5668   24.7369   -2.3213 C.ar    1  UNL1        0.0000
      4 H           8.3250   25.0930   -3.0030 H       1  UNL1        0.0000
      5 C           5.4866   25.0722   -1.1727 C.ar    1  UNL1        0.0000
      6 H           4.6203   25.6781   -0.9512 H       1  UNL1        0.0000
      7 C           7.7006   23.4936   -1.7236 C.ar    1  UNL1        0.0000
      8 H           8.5640   22.8812   -1.9401 H       1  UNL1        0.0000
      9 C           6.4594   25.5229   -2.0437 C.ar    1  UNL1        0.0000
     10 H           6.3552   26.4919   -2.5099 H       1  UNL1        0.0000
     11 C           2.2758   18.5000    0.9273 C.2     1  UNL1        0.0000
     12 H           2.7421   17.5724    0.6225 H       1  UNL1        0.0000
     13 C           0.8081   20.2380    1.0340 C.2     1  UNL1        0.0000
     14 H          -0.0627   20.8592    0.8589 H       1  UNL1        0.0000
     15 C           2.9146   19.5796    1.5769 C.2     1  UNL1        0.0000
     16 H           3.9638   19.6247    1.8392 H       1  UNL1        0.0000
     17 C           0.9816   18.9211    0.5675 C.2     1  UNL1        0.0000
     18 H           0.2703   18.3589   -0.0246 H       1  UNL1        0.0000
     19 C           2.0108   20.6625    1.6613 C.3     1  UNL1        0.0000
     20 C           3.1527   22.4015    4.0083 C.3     1  UNL1        0.0000
     21 H           4.0914   21.8554    4.0473 H       1  UNL1        0.0000
     22 H           2.4611   21.9494    4.7144 H       1  UNL1        0.0000
     23 H           3.3553   23.4147    4.3403 H       1  UNL1        0.0000
     24 C           3.7635   22.9637    1.0801 C.1     1  UNL1        0.0000
     25 C           0.9345   23.5777    2.0590 C.3     1  UNL1        0.0000
     26 H           1.2005   24.5843    2.3653 H       1  UNL1        0.0000
     27 H           0.1009   23.2498    2.6718 H       1  UNL1        0.0000
     28 H           0.5994   23.6264    1.0272 H       1  UNL1        0.0000
     29 C           4.6190   23.3571    0.3208 C.1     1  UNL1        0.0000
     30 C           6.7334   23.0329   -0.8513 C.ar    1  UNL1        0.0000
     31 H           6.8305   22.0643   -0.3829 H       1  UNL1        0.0000
@<TRIPOS>BOND
     1     4     3    1
     2    10     9    1
     3     3     9   ar
     4     3     7   ar
     5     9     5   ar
     6     8     7    1
     7     7    30   ar
     8     5     6    1
     9     5     2   ar
    10    30     2   ar
    11    30    31    1
    12     2    29    1
    13    18    17    1
    14    29    24    3
    15    17    11    1
    16    17    13    2
    17    12    11    1
    18    14    13    1
    19    11    15    2
    20    28    25    1
    21    13    19    1
    22    24     1    1
    23    15    19    1
    24    15    16    1
    25    19     1    1
    26    25     1    1
    27    25    26    1
    28    25    27    1
    29     1    20    1
    30    20    21    1
    31    20    23    1
    32    20    22    1
