@<TRIPOS>MOLECULE
1,3,5,7,9
 10 10 0 0 0
SMALL
GASTEIGER

@<TRIPOS>ATOM
      1 C           6.9543    8.7812    4.7089 C.2     1  UNL1       -0.0763
      2 H           7.8006    8.5091    4.0922 H       1  UNL1        0.0578
      3 C           6.7212    8.3535    6.0283 C.3     1  UNL1        0.0054
      4 H           7.3551    7.6837    6.5947 H       1  UNL1        0.0394
      5 C           4.9380    9.6166    5.3689 C.2     1  UNL1       -0.0654
      6 H           3.9273   10.0014    5.3185 H       1  UNL1        0.0615
      7 C           5.4906    8.8921    6.4533 C.2     1  UNL1       -0.0763
      8 H           4.9738    8.6325    7.3682 H       1  UNL1        0.0578
      9 C           5.8476    9.5573    4.2984 C.2     1  UNL1       -0.0654
     10 H           5.6909    9.9531    3.3034 H       1  UNL1        0.0615
@<TRIPOS>BOND
     1    10     9    1
     2     2     1    1
     3     9     1    2
     4     9     5    1
     5     1     3    1
     6     6     5    1
     7     5     7    2
     8     3     7    1
     9     3     4    1
    10     7     8    1
