@<TRIPOS>MOLECULE
2,3,5,11,17
 22 22 0 0 0
SMALL
GASTEIGER

@<TRIPOS>ATOM
      1 SI          7.0950   11.4339    9.6837 Si      1  UNL1        0.0000
      2 C           6.5085   11.9974    7.9805 C.3     1  UNL1        0.0000
      3 C           5.2365   11.7867    7.3969 C.2     1  UNL1        0.0000
      4 H           4.4004   11.3007    7.8853 H       1  UNL1        0.0000
      5 C           7.2251   12.8471    7.0921 C.2     1  UNL1        0.0000
      6 H           8.2147   13.2480    7.2698 H       1  UNL1        0.0000
      7 C           6.0789   12.3731   11.0037 C.3     1  UNL1        0.0000
      8 H           6.2252   13.4456   10.9279 H       1  UNL1        0.0000
      9 H           6.3777   12.0701   12.0013 H       1  UNL1        0.0000
     10 H           5.0153   12.1806   10.9064 H       1  UNL1        0.0000
     11 C           6.3910   13.1731    6.0055 C.2     1  UNL1        0.0000
     12 H           6.6372   13.8494    5.1974 H       1  UNL1        0.0000
     13 C           8.9533   11.8236    9.8612 C.3     1  UNL1        0.0000
     14 H           9.1383   12.8935    9.8839 H       1  UNL1        0.0000
     15 H           9.5074   11.4044    9.0258 H       1  UNL1        0.0000
     16 H           9.3597   11.4029   10.7755 H       1  UNL1        0.0000
     17 C           5.1707   12.4998    6.1779 C.2     1  UNL1        0.0000
     18 H           4.2908   12.6295    5.5598 H       1  UNL1        0.0000
     19 C           6.7888    9.5530    9.8608 C.3     1  UNL1        0.0000
     20 H           7.1924    9.1748   10.7950 H       1  UNL1        0.0000
     21 H           7.2714    9.0144    9.0479 H       1  UNL1        0.0000
     22 H           5.7291    9.3122    9.8466 H       1  UNL1        0.0000
@<TRIPOS>BOND
     1    12    11    1
     2    18    17    1
     3    11    17    1
     4    11     5    2
     5    17     3    2
     6     5     6    1
     7     5     2    1
     8     3     4    1
     9     3     2    1
    10     2     1    1
    11    15    13    1
    12    21    19    1
    13     1    19    1
    14     1    13    1
    15     1     7    1
    16    22    19    1
    17    19    20    1
    18    13    14    1
    19    13    16    1
    20    10     7    1
    21     8     7    1
    22     7     9    1
