@<TRIPOS>MOLECULE
1,3,5,7,9
 10 10 0 0 0
SMALL
GASTEIGER

@<TRIPOS>ATOM
      1 C           2.6910    9.2421    6.9175 C.2     1  UNL1       -0.0763
      2 H           2.3126   10.1934    7.2713 H       1  UNL1        0.0578
      3 C           3.5756    8.3995    7.6267 C.3     1  UNL1        0.0054
      4 H           3.9941    8.6056    8.6051 H       1  UNL1        0.0394
      5 C           3.9737    7.3620    6.7594 C.2     1  UNL1       -0.0763
      6 H           4.7641    6.6480    6.9552 H       1  UNL1        0.0578
      7 C           3.3090    7.5376    5.5293 C.2     1  UNL1       -0.0654
      8 H           3.4811    6.9693    4.6220 H       1  UNL1        0.0615
      9 C           2.5221    8.7105    5.6253 C.2     1  UNL1       -0.0654
     10 H           1.9952    9.1805    4.8042 H       1  UNL1        0.0615
@<TRIPOS>BOND
     1     8     7    1
     2    10     9    1
     3     7     9    1
     4     7     5    2
     5     9     1    2
     6     5     6    1
     7     5     3    1
     8     1     2    1
     9     1     3    1
    10     3     4    1
