@<TRIPOS>MOLECULE
1,3,5,7,9
 10 10 0 0 0
SMALL
GASTEIGER

@<TRIPOS>ATOM
      1 C           2.3462    7.4219    5.6345 C.2     1  UNL1       -0.0763
      2 H           2.6354    7.3484    6.6752 H       1  UNL1        0.0578
      3 C           1.2909    6.7134    5.0224 C.3     1  UNL1        0.0054
      4 H           0.6403    6.0024    5.5163 H       1  UNL1        0.0394
      5 C           1.1336    7.2081    3.7064 C.2     1  UNL1       -0.0763
      6 H           0.3074    6.9878    3.0400 H       1  UNL1        0.0578
      7 C           2.0819    8.2394    3.5147 C.2     1  UNL1       -0.0654
      8 H           2.1208    8.9065    2.6595 H       1  UNL1        0.0615
      9 C           2.8328    8.3673    4.7042 C.2     1  UNL1       -0.0654
     10 H           3.5521    9.1494    4.9190 H       1  UNL1        0.0615
@<TRIPOS>BOND
     1     8     7    1
     2     6     5    1
     3     7     5    2
     4     7     9    1
     5     5     3    1
     6     9    10    1
     7     9     1    2
     8     3     4    1
     9     3     1    1
    10     1     2    1
