@<TRIPOS>MOLECULE
1,3,5,7,9
 10 10 0 0 0
SMALL
GASTEIGER

@<TRIPOS>ATOM
      1 C           0.4407    4.8090    8.0695 C.2     1  UNL1       -0.0763
      2 H          -0.6254    4.6434    8.1654 H       1  UNL1        0.0578
      3 C           1.3137    5.2685    9.0751 C.3     1  UNL1        0.0054
      4 H           1.0491    5.4871   10.1031 H       1  UNL1        0.0394
      5 C           2.6315    5.2179    8.5680 C.2     1  UNL1       -0.0763
      6 H           3.5321    5.3823    9.1494 H       1  UNL1        0.0578
      7 C           2.5701    4.7032    7.2537 C.2     1  UNL1       -0.0654
      8 H           3.4146    4.4074    6.6423 H       1  UNL1        0.0615
      9 C           1.2181    4.4550    6.9458 C.2     1  UNL1       -0.0654
     10 H           0.8483    3.9636    6.0544 H       1  UNL1        0.0615
@<TRIPOS>BOND
     1    10     9    1
     2     8     7    1
     3     9     7    1
     4     9     1    2
     5     7     5    2
     6     1     2    1
     7     1     3    1
     8     5     3    1
     9     5     6    1
    10     3     4    1
