@<TRIPOS>MOLECULE
1,3,5,7,9
 10 10 0 0 0
SMALL
GASTEIGER

@<TRIPOS>ATOM
      1 C           5.7144    5.5493    2.9615 C.2     1  UNL1       -0.0763
      2 H           6.2897    4.7180    3.3474 H       1  UNL1        0.0578
      3 C           5.7546    6.8821    3.4325 C.3     1  UNL1        0.0054
      4 H           6.4030    7.2557    4.2142 H       1  UNL1        0.0394
      5 C           4.9728    7.6711    2.5633 C.2     1  UNL1       -0.0763
      6 H           4.9228    8.7537    2.5653 H       1  UNL1        0.0578
      7 C           4.4224    6.8248    1.5739 C.2     1  UNL1       -0.0654
      8 H           3.8876    7.1556    0.6898 H       1  UNL1        0.0615
      9 C           4.9043    5.5170    1.8128 C.2     1  UNL1       -0.0654
     10 H           4.7790    4.6593    1.1657 H       1  UNL1        0.0615
@<TRIPOS>BOND
     1     8     7    1
     2    10     9    1
     3     7     9    1
     4     7     5    2
     5     9     1    2
     6     5     6    1
     7     5     3    1
     8     1     2    1
     9     1     3    1
    10     3     4    1
