@<TRIPOS>MOLECULE
2,3,4,5,6
 34 34 0 0 0
SMALL
GASTEIGER

@<TRIPOS>ATOM
      1 SI          9.1467    4.3643    4.5978 Si      1  UNL1        0.0000
      2 C           7.5694    4.1812    3.5806 C.3     1  UNL1        0.0000
      3 C           6.6958    3.0376    3.5690 C.2     1  UNL1        0.0000
      4 C           5.4907    3.3994    2.9437 C.2     1  UNL1        0.0000
      5 C           5.5795    4.7838    2.5732 C.2     1  UNL1        0.0000
      6 C           6.8330    5.2644    2.9881 C.2     1  UNL1        0.0000
      7 C           6.9593    1.7414    4.2838 C.3     1  UNL1        0.0000
      8 H           6.9683    1.9058    5.3629 H       1  UNL1        0.0000
      9 H           7.9195    1.3129    4.0037 H       1  UNL1        0.0000
     10 H           6.1818    1.0122    4.0654 H       1  UNL1        0.0000
     11 C           4.2345    2.5811    2.8271 C.3     1  UNL1        0.0000
     12 H           4.4400    1.5181    2.9392 H       1  UNL1        0.0000
     13 H           3.7536    2.7317    1.8599 H       1  UNL1        0.0000
     14 H           3.5236    2.8700    3.6052 H       1  UNL1        0.0000
     15 C           4.4202    5.5798    2.0390 C.3     1  UNL1        0.0000
     16 H           3.7132    5.8003    2.8428 H       1  UNL1        0.0000
     17 H           3.8863    5.0243    1.2675 H       1  UNL1        0.0000
     18 H           4.7492    6.5265    1.6139 H       1  UNL1        0.0000
     19 C           7.2730    6.7011    2.9846 C.3     1  UNL1        0.0000
     20 H           6.5857    7.3185    2.4096 H       1  UNL1        0.0000
     21 H           8.2709    6.8148    2.5662 H       1  UNL1        0.0000
     22 H           7.2941    7.0868    4.0055 H       1  UNL1        0.0000
     23 C          10.3765    5.6489    3.8842 C.3     1  UNL1        0.0000
     24 H          10.4899    5.5396    2.8088 H       1  UNL1        0.0000
     25 H          11.3581    5.5140    4.3286 H       1  UNL1        0.0000
     26 H          10.0687    6.6681    4.0920 H       1  UNL1        0.0000
     27 C          10.1395    2.7300    4.7275 C.3     1  UNL1        0.0000
     28 H           9.7057    2.0441    5.4472 H       1  UNL1        0.0000
     29 H          11.1563    2.9335    5.0489 H       1  UNL1        0.0000
     30 H          10.1962    2.2248    3.7671 H       1  UNL1        0.0000
     31 C           8.6828    4.9124    6.3762 C.3     1  UNL1        0.0000
     32 H           8.1589    5.8633    6.3753 H       1  UNL1        0.0000
     33 H           9.5683    5.0254    6.9938 H       1  UNL1        0.0000
     34 H           8.0349    4.1871    6.8588 H       1  UNL1        0.0000
@<TRIPOS>BOND
     1    17    15    1
     2    18    15    1
     3    13    11    1
     4    15     5    1
     5    15    16    1
     6    20    19    1
     7    21    19    1
     8     5     4    1
     9     5     6    2
    10    24    23    1
    11    11    12    1
    12    11     4    1
    13    11    14    1
    14     4     3    2
    15    19     6    1
    16    19    22    1
    17     6     2    1
    18     3     2    1
    19     3     7    1
    20     2     1    1
    21    30    27    1
    22    23    26    1
    23    23    25    1
    24    23     1    1
    25     9     7    1
    26    10     7    1
    27     7     8    1
    28     1    27    1
    29     1    31    1
    30    27    29    1
    31    27    28    1
    32    32    31    1
    33    31    34    1
    34    31    33    1
