@<TRIPOS>MOLECULE
2,3,4,15,16
 40 42 0 0 0
SMALL
GASTEIGER

@<TRIPOS>ATOM
      1 O           6.6097    7.5509   14.2363 O.2     1  UNL1        0.0000
      2 C           6.2064    6.4275   13.9972 C.2     1  UNL1        0.0000
      3 C           6.1644    5.2237   14.8961 C.3     1  UNL1        0.0000
      4 C           5.9664    4.1020   14.0415 C.3     1  UNL1        0.0000
      5 C           6.2034    2.6162   14.0463 C.3     1  UNL1        0.0000
      6 H           7.2801    2.4204   14.1878 H       1  UNL1        0.0000
      7 O           5.4610    1.9770   15.0592 O.3     1  UNL1        0.0000
      8 H           5.5968    1.0247   15.0038 H       1  UNL1        0.0000
      9 C           5.7332    2.1905   12.6283 C.3     1  UNL1        0.0000
     10 H           4.6983    1.8540   12.7253 H       1  UNL1        0.0000
     11 H           6.3310    1.3733   12.2267 H       1  UNL1        0.0000
     12 C           5.7750    3.4411   11.7340 C.3     1  UNL1        0.0000
     13 H           6.7403    3.5241   11.2256 H       1  UNL1        0.0000
     14 H           4.9935    3.4356   10.9768 H       1  UNL1        0.0000
     15 C           5.6631    4.5561   12.7257 C.3     1  UNL1        0.0000
     16 C           5.5961    5.9696   12.7213 C.3     1  UNL1        0.0000
     17 SI          5.4951    7.1781   11.2720 Si      1  UNL1        0.0000
     18 C           7.2763    7.7168   10.8570 C.3     1  UNL1        0.0000
     19 H           7.7479    8.1485   11.7340 H       1  UNL1        0.0000
     20 H           7.2860    8.4648   10.0702 H       1  UNL1        0.0000
     21 H           7.8880    6.8815   10.5272 H       1  UNL1        0.0000
     22 C           4.6948    6.2878    9.7860 C.3     1  UNL1        0.0000
     23 H           5.3388    5.5156    9.3779 H       1  UNL1        0.0000
     24 H           4.4925    6.9952    8.9893 H       1  UNL1        0.0000
     25 H           3.7508    5.8264   10.0585 H       1  UNL1        0.0000
     26 C           4.4101    8.6355   11.8330 C.3     1  UNL1        0.0000
     27 H           3.3945    8.3118   12.0471 H       1  UNL1        0.0000
     28 H           4.3590    9.4158   11.0802 H       1  UNL1        0.0000
     29 H           4.8157    9.0735   12.7394 H       1  UNL1        0.0000
     30 C           6.6513    5.2039   16.2744 C.ar    1  UNL1        0.0000
     31 C           7.4661    6.2309   16.7542 C.ar    1  UNL1        0.0000
     32 H           7.7225    7.0523   16.1050 H       1  UNL1        0.0000
     33 C           7.9396    6.1975   18.0524 C.ar    1  UNL1        0.0000
     34 H           8.5719    6.9971   18.4099 H       1  UNL1        0.0000
     35 C           7.6065    5.1498   18.8941 C.ar    1  UNL1        0.0000
     36 H           7.9763    5.1287   19.9089 H       1  UNL1        0.0000
     37 C           6.7876    4.1323   18.4301 C.ar    1  UNL1        0.0000
     38 H           6.5145    3.3175   19.0851 H       1  UNL1        0.0000
     39 C           6.3102    4.1581   17.1349 C.ar    1  UNL1        0.0000
     40 H           5.6581    3.3745   16.7821 H       1  UNL1        0.0000
@<TRIPOS>BOND
     1    24    22    1
     2    23    22    1
     3    22    25    1
     4    22    17    1
     5    20    18    1
     6    21    18    1
     7    18    17    1
     8    18    19    1
     9    14    12    1
    10    28    26    1
    11    13    12    1
    12    17    26    1
    13    17    16    1
    14    12     9    1
    15    12    15    1
    16    26    27    1
    17    26    29    1
    18    11     9    1
    19     9    10    1
    20     9     5    1
    21    16    15    1
    22    16     2    1
    23    15     4    1
    24     2     1    2
    25     2     3    1
    26     4     5    1
    27     4     3    1
    28     5     6    1
    29     5     7    1
    30     3    30    1
    31     8     7    1
    32    32    31    1
    33    30    31   ar
    34    30    39   ar
    35    31    33   ar
    36    40    39    1
    37    39    37   ar
    38    33    34    1
    39    33    35   ar
    40    37    35   ar
    41    37    38    1
    42    35    36    1
