@<TRIPOS>MOLECULE
2,3,4,15,16
 42 43 0 0 0
SMALL
GASTEIGER

@<TRIPOS>ATOM
      1 O           3.1438    8.6234   14.4166 O.2     1  UNL1        0.0000
      2 C           3.5312    9.7089   14.0231 C.2     1  UNL1        0.0000
      3 C           3.8688   10.9089   14.8412 C.3     1  UNL1        0.0000
      4 C           3.8743   12.0023   13.9398 C.3     1  UNL1        0.0000
      5 O           4.7756   14.0450   14.7979 O.3     1  UNL1        0.0000
      6 H           4.7042   15.0058   14.8009 H       1  UNL1        0.0000
      7 C           3.7723   13.4990   13.9748 C.3     1  UNL1        0.0000
      8 H           2.7755   13.7946   14.3430 H       1  UNL1        0.0000
      9 C           3.9546   13.8842   12.4799 C.3     1  UNL1        0.0000
     10 H           3.3614   14.7550   12.2031 H       1  UNL1        0.0000
     11 H           5.0119   14.1203   12.3402 H       1  UNL1        0.0000
     12 C           3.5996   12.6435   11.6393 C.3     1  UNL1        0.0000
     13 H           2.5414   12.6527   11.3613 H       1  UNL1        0.0000
     14 H           4.1884   12.5803   10.7261 H       1  UNL1        0.0000
     15 C           3.8317   11.5209   12.6013 C.3     1  UNL1        0.0000
     16 C           3.8277   10.1069   12.6173 C.3     1  UNL1        0.0000
     17 SI          3.5671    8.8729   11.2138 Si      1  UNL1        0.0000
     18 C           3.9775    9.7239    9.5553 C.3     1  UNL1        0.0000
     19 H           3.2681   10.5087    9.3134 H       1  UNL1        0.0000
     20 H           3.9520    9.0028    8.7456 H       1  UNL1        0.0000
     21 H           4.9702   10.1629    9.5687 H       1  UNL1        0.0000
     22 C           4.7584    7.4218   11.5193 C.3     1  UNL1        0.0000
     23 H           5.7951    7.7464   11.4758 H       1  UNL1        0.0000
     24 H           4.6273    6.6281   10.7905 H       1  UNL1        0.0000
     25 H           4.5848    7.0004   12.5043 H       1  UNL1        0.0000
     26 C           1.7426    8.3225   11.2622 C.3     1  UNL1        0.0000
     27 H           1.5006    7.9329   12.2459 H       1  UNL1        0.0000
     28 H           1.5490    7.5397   10.5351 H       1  UNL1        0.0000
     29 H           1.0631    9.1442   11.0533 H       1  UNL1        0.0000
     30 SI          3.6186   10.8527   16.7127 Si      1  UNL1        0.0000
     31 C           1.8028   10.3409   17.0029 C.3     1  UNL1        0.0000
     32 H           1.1047   11.0885   16.6355 H       1  UNL1        0.0000
     33 H           1.6020   10.1922   18.0595 H       1  UNL1        0.0000
     34 H           1.5926    9.4090   16.4880 H       1  UNL1        0.0000
     35 C           4.8316    9.5454   17.3784 C.3     1  UNL1        0.0000
     36 H           4.6701    8.5968   16.8760 H       1  UNL1        0.0000
     37 H           4.7046    9.3819   18.4439 H       1  UNL1        0.0000
     38 H           5.8637    9.8410   17.2072 H       1  UNL1        0.0000
     39 C           3.9715   12.5504   17.4996 C.3     1  UNL1        0.0000
     40 H           4.8806   12.9881   17.1019 H       1  UNL1        0.0000
     41 H           4.0873   12.4544   18.5740 H       1  UNL1        0.0000
     42 H           3.1641   13.2528   17.3194 H       1  UNL1        0.0000
@<TRIPOS>BOND
     1    20    18    1
     2    19    18    1
     3    18    21    1
     4    18    17    1
     5    28    26    1
     6    14    12    1
     7    24    22    1
     8    29    26    1
     9    17    26    1
    10    17    22    1
    11    17    16    1
    12    26    27    1
    13    13    12    1
    14    23    22    1
    15    22    25    1
    16    12     9    1
    17    12    15    1
    18    10     9    1
    19    11     9    1
    20     9     7    1
    21    15    16    1
    22    15     4    1
    23    16     2    1
    24     4     7    1
    25     4     3    1
    26     7     8    1
    27     7     5    1
    28     2     1    2
    29     2     3    1
    30     5     6    1
    31     3    30    1
    32    34    31    1
    33    32    31    1
    34    30    31    1
    35    30    35    1
    36    30    39    1
    37    36    35    1
    38    31    33    1
    39    40    39    1
    40    38    35    1
    41    42    39    1
    42    35    37    1
    43    39    41    1
