@<TRIPOS>MOLECULE
1,15,16,19,20
 22 22 0 0 0
SMALL
GASTEIGER

@<TRIPOS>ATOM
      1 C          11.7742   12.3975    7.1715 C.2     1  UNL1        0.0000
      2 SI         11.1763   11.5033    8.7169 Si      1  UNL1        0.0000
      3 C           9.3041   11.1567    8.4967 C.3     1  UNL1        0.0000
      4 H           9.1069   10.5722    7.6032 H       1  UNL1        0.0000
      5 H           8.7364   12.0784    8.4166 H       1  UNL1        0.0000
      6 H           8.9114   10.6039    9.3438 H       1  UNL1        0.0000
      7 C          11.4267   12.5641   10.2857 C.3     1  UNL1        0.0000
      8 H          10.7894   13.4433   10.2658 H       1  UNL1        0.0000
      9 H          12.4548   12.9120   10.3571 H       1  UNL1        0.0000
     10 H          11.1870   12.0060   11.1860 H       1  UNL1        0.0000
     11 C          12.0977    9.8335    8.8493 C.3     1  UNL1        0.0000
     12 H          11.8522    9.1797    8.0176 H       1  UNL1        0.0000
     13 H          11.8280    9.3108    9.7613 H       1  UNL1        0.0000
     14 H          13.1738    9.9777    8.8553 H       1  UNL1        0.0000
     15 C          12.6874   11.9058    6.1969 C.3     1  UNL1        0.0000
     16 C          12.6589   12.7589    5.0836 C.2     1  UNL1        0.0000
     17 H          13.2032   10.9543    6.2529 H       1  UNL1        0.0000
     18 H          13.1477   12.5795    4.1341 H       1  UNL1        0.0000
     19 C          11.7638   13.8108    5.3606 C.2     1  UNL1        0.0000
     20 C          11.2111   13.5819    6.6323 C.2     1  UNL1        0.0000
     21 H          11.4449   14.5774    4.6640 H       1  UNL1        0.0000
     22 H          10.3985   14.1426    7.0778 H       1  UNL1        0.0000
@<TRIPOS>BOND
     1    18    16    1
     2    21    19    1
     3    16    19    2
     4    16    15    1
     5    19    20    1
     6    15    17    1
     7    15     1    1
     8    20    22    1
     9    20     1    2
    10     1     2    1
    11     4     3    1
    12    12    11    1
    13     5     3    1
    14     3     2    1
    15     3     6    1
    16     2    11    1
    17     2     7    1
    18    11    14    1
    19    11    13    1
    20     8     7    1
    21     7     9    1
    22     7    10    1
