@<TRIPOS>MOLECULE
2,3,5,7,9
 22 22 0 0 0
SMALL
GASTEIGER

@<TRIPOS>ATOM
      1 SI         15.9254   16.3817    8.7170 Si      1  UNL1        0.0000
      2 C          15.3276   15.4874    7.1717 C.2     1  UNL1        0.0000
      3 C          14.4144   15.9789    6.1969 C.3     1  UNL1        0.0000
      4 H          13.8985   16.9305    6.2528 H       1  UNL1        0.0000
      5 C          14.4432   15.1259    5.0836 C.2     1  UNL1        0.0000
      6 H          13.9545   15.3052    4.1341 H       1  UNL1        0.0000
      7 C          15.3383   14.0740    5.3608 C.2     1  UNL1        0.0000
      8 H          15.6573   13.3074    4.6642 H       1  UNL1        0.0000
      9 C          15.8909   14.3030    6.6324 C.2     1  UNL1        0.0000
     10 H          16.7036   13.7425    7.0779 H       1  UNL1        0.0000
     11 C          17.7976   16.7284    8.4968 C.3     1  UNL1        0.0000
     12 H          17.9948   17.3129    7.6032 H       1  UNL1        0.0000
     13 H          18.3654   15.8068    8.4167 H       1  UNL1        0.0000
     14 H          18.1902   17.2813    9.3438 H       1  UNL1        0.0000
     15 C          15.6752   15.3210   10.2859 C.3     1  UNL1        0.0000
     16 H          16.3125   14.4418   10.2660 H       1  UNL1        0.0000
     17 H          14.6471   14.9731   10.3573 H       1  UNL1        0.0000
     18 H          15.9149   15.8792   11.1861 H       1  UNL1        0.0000
     19 C          15.0041   18.0516    8.8491 C.3     1  UNL1        0.0000
     20 H          15.2497   18.7054    8.0175 H       1  UNL1        0.0000
     21 H          15.2739   18.5743    9.7612 H       1  UNL1        0.0000
     22 H          13.9281   17.9075    8.8552 H       1  UNL1        0.0000
@<TRIPOS>BOND
     1     6     5    1
     2     8     7    1
     3     5     7    2
     4     5     3    1
     5     7     9    1
     6     3     4    1
     7     3     2    1
     8     9    10    1
     9     9     2    2
    10     2     1    1
    11    12    11    1
    12    20    19    1
    13    13    11    1
    14    11     1    1
    15    11    14    1
    16     1    19    1
    17     1    15    1
    18    19    22    1
    19    19    21    1
    20    16    15    1
    21    15    17    1
    22    15    18    1
