@<TRIPOS>MOLECULE
1,3,5,7,9
 10 10 0 0 0
SMALL
GASTEIGER

@<TRIPOS>ATOM
      1 C           2.2121    3.2332   14.3854 C.3     1  UNL1        0.0054
      2 H           2.2855    3.5929   13.3678 H       1  UNL1        0.0394
      3 C           1.2618    2.3023   14.8557 C.2     1  UNL1       -0.0763
      4 H           0.4642    1.8714   14.2725 H       1  UNL1        0.0578
      5 C           1.6436    1.8995   16.1432 C.2     1  UNL1       -0.0654
      6 H           1.1725    1.1251   16.7252 H       1  UNL1        0.0615
      7 C           2.8351    2.5667   16.4765 C.2     1  UNL1       -0.0654
      8 H           3.4490    2.3741   17.3419 H       1  UNL1        0.0615
      9 C           3.1964    3.3849   15.3893 C.2     1  UNL1       -0.0763
     10 H           4.1507    3.8784   15.2715 H       1  UNL1        0.0578
@<TRIPOS>BOND
     1     2     1    1
     2     4     3    1
     3     1     3    1
     4     1     9    1
     5     3     5    2
     6    10     9    1
     7     9     7    2
     8     5     7    1
     9     5     6    1
    10     7     8    1
