@<TRIPOS>MOLECULE
1,3,5,7,9
 10 10 0 0 0
SMALL
GASTEIGER

@<TRIPOS>ATOM
      1 C           4.3900    6.0767    5.1592 C.2     1  UNL1       -0.0763
      2 H           4.9554    6.7904    4.5771 H       1  UNL1        0.0578
      3 C           3.1529    5.5072    4.7884 C.2     1  UNL1       -0.0654
      4 H           2.5988    5.7307    3.8875 H       1  UNL1        0.0615
      5 C           2.6716    4.7645    5.8851 C.2     1  UNL1       -0.0654
      6 H           1.6858    4.3206    5.9597 H       1  UNL1        0.0615
      7 C           3.6141    4.8625    6.9281 C.2     1  UNL1       -0.0763
      8 H           3.4785    4.5059    7.9432 H       1  UNL1        0.0578
      9 C           4.6736    5.6800    6.4818 C.3     1  UNL1        0.0054
     10 H           5.4765    6.0631    7.0956 H       1  UNL1        0.0394
@<TRIPOS>BOND
     1     4     3    1
     2     2     1    1
     3     3     1    2
     4     3     5    1
     5     1     9    1
     6     5     6    1
     7     5     7    2
     8     9     7    1
     9     9    10    1
    10     7     8    1
