@<TRIPOS>MOLECULE
1,2,3,4,5
 25 25 0 0 0
SMALL
GASTEIGER

@<TRIPOS>ATOM
      1 C           7.8002    3.3165   11.7820 C.2     1  UNL1       -0.0584
      2 C           6.9626    3.8856   10.7621 C.3     1  UNL1        0.0231
      3 C           7.7205    4.8623   10.0637 C.2     1  UNL1       -0.0584
      4 C           9.0234    4.9125   10.6512 C.2     1  UNL1       -0.0477
      5 C           9.0585    3.9718   11.7245 C.2     1  UNL1       -0.0477
      6 C           7.5099    2.0412   12.5170 C.3     1  UNL1       -0.0424
      7 H           7.8256    1.1940   11.9028 H       1  UNL1        0.0275
      8 H           6.4486    1.9256   12.7268 H       1  UNL1        0.0275
      9 H           8.0440    1.9841   13.4625 H       1  UNL1        0.0275
     10 C           5.6412    3.3350   10.3070 C.3     1  UNL1       -0.0510
     11 H           4.9870    4.1256    9.9392 H       1  UNL1        0.0242
     12 H           5.1301    2.8116   11.1141 H       1  UNL1        0.0242
     13 H           5.7941    2.6232    9.4918 H       1  UNL1        0.0242
     14 C           7.3021    5.5058    8.7743 C.3     1  UNL1       -0.0424
     15 H           7.9046    6.3837    8.5566 H       1  UNL1        0.0275
     16 H           6.2564    5.8116    8.8057 H       1  UNL1        0.0275
     17 H           7.4214    4.7984    7.9494 H       1  UNL1        0.0275
     18 C          10.2462    5.5094   10.0252 C.3     1  UNL1       -0.0395
     19 H          11.0010    5.7422   10.7717 H       1  UNL1        0.0278
     20 H          10.0185    6.4164    9.4722 H       1  UNL1        0.0278
     21 H          10.6765    4.7877    9.3250 H       1  UNL1        0.0278
     22 C          10.3016    3.5726   12.4685 C.3     1  UNL1       -0.0395
     23 H          10.9284    2.9383   11.8367 H       1  UNL1        0.0278
     24 H          10.0610    3.0133   13.3711 H       1  UNL1        0.0278
     25 H          10.8898    4.4445   12.7552 H       1  UNL1        0.0278
@<TRIPOS>BOND
     1    17    14    1
     2    15    14    1
     3    14    16    1
     4    14     3    1
     5    21    18    1
     6    20    18    1
     7    13    10    1
     8    11    10    1
     9    18     4    1
    10    18    19    1
    11     3     4    2
    12     3     2    1
    13    10     2    1
    14    10    12    1
    15     4     5    1
    16     2     1    1
    17     5     1    2
    18     5    22    1
    19     1     6    1
    20    23    22    1
    21     7     6    1
    22    22    25    1
    23    22    24    1
    24     6     8    1
    25     6     9    1
