@<TRIPOS>MOLECULE
5,6,7,8,9
 22 22 0 0 0
SMALL
GASTEIGER

@<TRIPOS>ATOM
      1 SI          5.9380   10.5039   11.7666 Si      1  UNL1        0.0000
      2 C           4.9751    8.9471   12.3268 C.3     1  UNL1        0.0000
      3 C           7.7047   10.4823   12.4888 C.3     1  UNL1        0.0000
      4 C           5.0233   12.0692   12.3648 C.3     1  UNL1        0.0000
      5 C           6.0106   10.5048    9.8860 C.3     1  UNL1        0.0000
      6 C           7.1715   10.4437    9.0701 C.2     1  UNL1        0.0000
      7 C           6.8034   10.6327    7.7374 C.2     1  UNL1        0.0000
      8 C           5.4042   10.8354    7.6946 C.2     1  UNL1        0.0000
      9 C           4.9184   10.7624    9.0093 C.2     1  UNL1        0.0000
     10 H           4.9696    8.8412   13.4080 H       1  UNL1        0.0000
     11 H           5.4112    8.0420   11.9005 H       1  UNL1        0.0000
     12 H           3.9397    8.9976   11.9948 H       1  UNL1        0.0000
     13 H           8.2720   11.3527   12.1720 H       1  UNL1        0.0000
     14 H           8.2561    9.5977   12.1854 H       1  UNL1        0.0000
     15 H           7.6719   10.4921   13.5737 H       1  UNL1        0.0000
     16 H           4.9677   12.0855   13.4483 H       1  UNL1        0.0000
     17 H           4.0078   12.1113   11.9834 H       1  UNL1        0.0000
     18 H           5.5318   12.9746   12.0476 H       1  UNL1        0.0000
     19 H           8.1869   10.3798    9.4399 H       1  UNL1        0.0000
     20 H           7.4764   10.7093    6.8921 H       1  UNL1        0.0000
     21 H           4.8275   11.0957    6.8146 H       1  UNL1        0.0000
     22 H           3.8998   10.9714    9.3194 H       1  UNL1        0.0000
@<TRIPOS>BOND
     1    21     8    1
     2    20     7    1
     3     8     7    1
     4     8     9    2
     5     7     6    2
     6     9    22    1
     7     9     5    1
     8     6    19    1
     9     6     5    1
    10     5     1    1
    11     1     2    1
    12     1     4    1
    13     1     3    1
    14    11     2    1
    15    17     4    1
    16    12     2    1
    17    18     4    1
    18    13     3    1
    19    14     3    1
    20     2    10    1
    21     4    16    1
    22     3    15    1
