@<TRIPOS>MOLECULE
1,15,17,31,33
 34 34 0 0 0
SMALL
GASTEIGER

@<TRIPOS>ATOM
      1 C           0.0953   -2.2118   16.9922 C.2     1  UNL1        0.0000
      2 SI         -1.6348   -1.6190   17.4252 Si      1  UNL1        0.0000
      3 C          -1.5819    0.1870   18.0728 C.3     1  UNL1        0.0000
      4 H          -1.9222    0.2621   19.1010 H       1  UNL1        0.0000
      5 H          -2.2370    0.8152   17.4788 H       1  UNL1        0.0000
      6 H          -0.5880    0.6186   18.0104 H       1  UNL1        0.0000
      7 C          -2.5066   -2.7424   18.7120 C.3     1  UNL1        0.0000
      8 H          -3.0322   -3.5559   18.2229 H       1  UNL1        0.0000
      9 H          -3.2494   -2.1887   19.2791 H       1  UNL1        0.0000
     10 H          -1.8100   -3.1931   19.4159 H       1  UNL1        0.0000
     11 C          -2.6956   -1.6347   15.8364 C.3     1  UNL1        0.0000
     12 H          -2.2345   -1.0555   15.0423 H       1  UNL1        0.0000
     13 H          -3.6771   -1.2109   16.0255 H       1  UNL1        0.0000
     14 H          -2.8476   -2.6427   15.4638 H       1  UNL1        0.0000
     15 C           0.3466   -3.0478   15.8859 C.2     1  UNL1        0.0000
     16 H          -0.4173   -3.4303   15.2259 H       1  UNL1        0.0000
     17 C           1.7401   -3.1445   15.6454 C.2     1  UNL1        0.0000
     18 SI          2.4655   -3.7415   14.0119 Si      1  UNL1        0.0000
     19 C           1.0469   -3.8054   12.7286 C.3     1  UNL1        0.0000
     20 H           1.4365   -4.0525   11.7462 H       1  UNL1        0.0000
     21 H           0.5408   -2.8488   12.6478 H       1  UNL1        0.0000
     22 H           0.3003   -4.5539   12.9753 H       1  UNL1        0.0000
     23 C           3.7579   -2.4827   13.3901 C.3     1  UNL1        0.0000
     24 H           4.6217   -2.4313   14.0425 H       1  UNL1        0.0000
     25 H           3.3353   -1.4850   13.3241 H       1  UNL1        0.0000
     26 H           4.1118   -2.7566   12.4012 H       1  UNL1        0.0000
     27 C           3.2319   -5.4966   14.1189 C.3     1  UNL1        0.0000
     28 H           4.2010   -5.5229   13.6313 H       1  UNL1        0.0000
     29 H           2.6049   -6.2310   13.6229 H       1  UNL1        0.0000
     30 H           3.3674   -5.8184   15.1487 H       1  UNL1        0.0000
     31 C           2.3613   -2.3077   16.6203 C.2     1  UNL1        0.0000
     32 H           3.4119   -2.0480   16.6286 H       1  UNL1        0.0000
     33 C           1.3724   -1.7477   17.4366 C.3     1  UNL1        0.0000
     34 H           1.5353   -0.9678   18.1691 H       1  UNL1        0.0000
@<TRIPOS>BOND
     1    20    19    1
     2    26    23    1
     3    21    19    1
     4    19    22    1
     5    19    18    1
     6    25    23    1
     7    23    18    1
     8    23    24    1
     9    29    27    1
    10    28    27    1
    11    18    27    1
    12    18    17    1
    13    27    30    1
    14    12    11    1
    15    16    15    1
    16    14    11    1
    17    17    15    1
    18    17    31    2
    19    11    13    1
    20    11     2    1
    21    15     1    2
    22    31    32    1
    23    31    33    1
    24     1     2    1
    25     1    33    1
    26     2     3    1
    27     2     7    1
    28    33    34    1
    29     5     3    1
    30     6     3    1
    31     3     4    1
    32     8     7    1
    33     7     9    1
    34     7    10    1
