@<TRIPOS>MOLECULE
1,2,3,4,5
 34 34 0 0 0
SMALL
GASTEIGER

@<TRIPOS>ATOM
      1 C           5.5905    0.3679    9.2966 C.2     1  UNL1        0.0000
      2 C           5.5223    1.7194    8.8678 C.2     1  UNL1        0.0000
      3 C           6.7102    2.3998    9.2263 C.2     1  UNL1        0.0000
      4 C           7.5302    1.4459    9.8957 C.2     1  UNL1        0.0000
      5 C           6.8655    0.2143    9.9207 C.3     1  UNL1        0.0000
      6 SI          4.4467   -0.9881    8.6821 Si      1  UNL1        0.0000
      7 C           4.8466   -2.6900    9.4516 C.3     1  UNL1        0.0000
      8 C           2.6152   -0.5123    8.9969 C.3     1  UNL1        0.0000
      9 C           4.6762   -1.1356    6.7871 C.3     1  UNL1        0.0000
     10 SI          7.3428    3.9377    8.3535 Si      1  UNL1        0.0000
     11 C           8.3996    3.3226    6.8796 C.3     1  UNL1        0.0000
     12 C           8.4642    5.0412    9.4381 C.3     1  UNL1        0.0000
     13 C           5.8768    4.9443    7.6560 C.3     1  UNL1        0.0000
     14 H           4.7383    2.1362    8.2468 H       1  UNL1        0.0000
     15 H           8.5549    1.6141   10.2044 H       1  UNL1        0.0000
     16 H           7.3074   -0.7267   10.2199 H       1  UNL1        0.0000
     17 H           5.8861   -2.9573    9.2886 H       1  UNL1        0.0000
     18 H           4.2405   -3.4620    8.9879 H       1  UNL1        0.0000
     19 H           4.6583   -2.7263   10.5189 H       1  UNL1        0.0000
     20 H           2.3439    0.3632    8.4138 H       1  UNL1        0.0000
     21 H           2.4179   -0.2868   10.0414 H       1  UNL1        0.0000
     22 H           1.9523   -1.3186    8.6992 H       1  UNL1        0.0000
     23 H           4.4824   -0.1913    6.2877 H       1  UNL1        0.0000
     24 H           4.0026   -1.8749    6.3657 H       1  UNL1        0.0000
     25 H           5.6890   -1.4332    6.5346 H       1  UNL1        0.0000
     26 H           7.8426    2.6340    6.2516 H       1  UNL1        0.0000
     27 H           9.2889    2.8027    7.2221 H       1  UNL1        0.0000
     28 H           8.7231    4.1500    6.2557 H       1  UNL1        0.0000
     29 H           7.9015    5.8164    9.9469 H       1  UNL1        0.0000
     30 H           9.2078    5.5349    8.8210 H       1  UNL1        0.0000
     31 H           8.9992    4.4689   10.1892 H       1  UNL1        0.0000
     32 H           5.4442    4.4535    6.7899 H       1  UNL1        0.0000
     33 H           6.2072    5.9277    7.3379 H       1  UNL1        0.0000
     34 H           5.0840    5.0839    8.3819 H       1  UNL1        0.0000
@<TRIPOS>BOND
     1    26    11    1
     2    28    11    1
     3    23     9    1
     4    24     9    1
     5    25     9    1
     6     9     6    1
     7    32    13    1
     8    11    27    1
     9    11    10    1
    10    33    13    1
    11    13    10    1
    12    13    34    1
    13    14     2    1
    14    10     3    1
    15    10    12    1
    16    20     8    1
    17     6     8    1
    18     6     1    1
    19     6     7    1
    20    22     8    1
    21    30    12    1
    22     2     3    1
    23     2     1    2
    24    18     7    1
    25     8    21    1
    26     3     4    2
    27    17     7    1
    28     1     5    1
    29    12    29    1
    30    12    31    1
    31     7    19    1
    32     4     5    1
    33     4    15    1
    34     5    16    1
