@<TRIPOS>MOLECULE
2,3,4,5,6
 34 34 0 0 0
SMALL
GASTEIGER

@<TRIPOS>ATOM
      1 SI         10.1222    5.3993   21.3269 Si      1  UNL1        0.0000
      2 C          10.7723    3.6594   20.9248 C.3     1  UNL1        0.0000
      3 C          11.1716    2.6999   21.9239 C.2     1  UNL1        0.0000
      4 C          11.2694    1.4213   21.3180 C.2     1  UNL1        0.0000
      5 C          10.8928    1.5576   19.9444 C.2     1  UNL1        0.0000
      6 C          10.5845    2.9191   19.7033 C.2     1  UNL1        0.0000
      7 C          11.2274    2.9818   23.4002 C.3     1  UNL1        0.0000
      8 H          11.3608    2.0646   23.9702 H       1  UNL1        0.0000
      9 H          10.2858    3.4270   23.7175 H       1  UNL1        0.0000
     10 H          12.0217    3.6798   23.6652 H       1  UNL1        0.0000
     11 C          11.4457    0.0906   22.0006 C.3     1  UNL1        0.0000
     12 H          11.7718    0.2018   23.0319 H       1  UNL1        0.0000
     13 H          12.1681   -0.5427   21.4814 H       1  UNL1        0.0000
     14 H          10.4919   -0.4405   22.0116 H       1  UNL1        0.0000
     15 C          10.4975    0.4284   19.0347 C.3     1  UNL1        0.0000
     16 H           9.4109    0.3195   19.0594 H       1  UNL1        0.0000
     17 H          10.9260   -0.5195   19.3534 H       1  UNL1        0.0000
     18 H          10.7789    0.6152   17.9988 H       1  UNL1        0.0000
     19 C           9.8755    3.3870   18.4677 C.3     1  UNL1        0.0000
     20 H          10.2897    2.9293   17.5695 H       1  UNL1        0.0000
     21 H           9.9123    4.4650   18.3661 H       1  UNL1        0.0000
     22 H           8.8255    3.0930   18.5270 H       1  UNL1        0.0000
     23 C           8.3919    5.2382   22.1122 C.3     1  UNL1        0.0000
     24 H           8.3974    4.6447   23.0207 H       1  UNL1        0.0000
     25 H           7.6927    4.7716   21.4250 H       1  UNL1        0.0000
     26 H           7.9982    6.2174   22.3652 H       1  UNL1        0.0000
     27 C          11.3543    6.2407   22.5330 C.3     1  UNL1        0.0000
     28 H          11.2664    7.3201   22.4694 H       1  UNL1        0.0000
     29 H          12.3876    5.9837   22.3024 H       1  UNL1        0.0000
     30 H          11.1629    5.9694   23.5651 H       1  UNL1        0.0000
     31 C           9.9806    6.5700   19.8231 C.3     1  UNL1        0.0000
     32 H           9.8822    7.5916   20.1771 H       1  UNL1        0.0000
     33 H           9.0972    6.3594   19.2298 H       1  UNL1        0.0000
     34 H          10.8448    6.5416   19.1659 H       1  UNL1        0.0000
@<TRIPOS>BOND
     1    20    19    1
     2    18    15    1
     3    21    19    1
     4    19    22    1
     5    19     6    1
     6    15    16    1
     7    15    17    1
     8    15     5    1
     9    34    31    1
    10    33    31    1
    11     6     5    2
    12     6     2    1
    13    31    32    1
    14    31     1    1
    15     5     4    1
    16     2     1    1
    17     2     3    1
    18     4     3    2
    19     4    11    1
    20     1    23    1
    21     1    27    1
    22    25    23    1
    23    13    11    1
    24     3     7    1
    25    11    14    1
    26    11    12    1
    27    23    26    1
    28    23    24    1
    29    29    27    1
    30    28    27    1
    31    27    30    1
    32     7    10    1
    33     7     9    1
    34     7     8    1
