@<TRIPOS>MOLECULE
1,2,3,4,5
 25 25 0 0 0
SMALL
GASTEIGER

@<TRIPOS>ATOM
      1 C           1.5526    1.8409   11.7837 C.2     1  UNL1       -0.0584
      2 C           2.7041    1.2440   11.1852 C.2     1  UNL1       -0.0477
      3 C           3.4138    0.5461   12.2000 C.2     1  UNL1       -0.0477
      4 C           2.7172    0.7260   13.4260 C.2     1  UNL1       -0.0584
      5 C           1.5624    1.5124   13.1694 C.3     1  UNL1        0.0231
      6 C           0.3531    2.3875   11.0519 C.3     1  UNL1       -0.0424
      7 C           2.9775    1.1223    9.7090 C.3     1  UNL1       -0.0395
      8 C           4.5984   -0.3602   12.0039 C.3     1  UNL1       -0.0395
      9 C           3.0842    0.1428   14.7614 C.3     1  UNL1       -0.0424
     10 C           0.4351    1.7046   14.1474 C.3     1  UNL1       -0.0510
     11 H          -0.0494    3.2768   11.5376 H       1  UNL1        0.0275
     12 H          -0.4375    1.6330   11.0333 H       1  UNL1        0.0275
     13 H           0.5925    2.6320   10.0189 H       1  UNL1        0.0275
     14 H           2.4901    1.9159    9.1448 H       1  UNL1        0.0278
     15 H           2.5931    0.1691    9.3365 H       1  UNL1        0.0278
     16 H           4.0469    1.1535    9.4963 H       1  UNL1        0.0278
     17 H           5.3860   -0.1477   12.7304 H       1  UNL1        0.0278
     18 H           5.0116   -0.2565   11.0022 H       1  UNL1        0.0278
     19 H           4.2957   -1.4017   12.1354 H       1  UNL1        0.0278
     20 H           2.4803   -0.7426   14.9757 H       1  UNL1        0.0275
     21 H           4.1346   -0.1473   14.7821 H       1  UNL1        0.0275
     22 H           2.9092    0.8717   15.5563 H       1  UNL1        0.0275
     23 H          -0.3664    2.2960   13.7104 H       1  UNL1        0.0242
     24 H           0.7768    2.1920   15.0621 H       1  UNL1        0.0242
     25 H           0.0243    0.7307   14.4235 H       1  UNL1        0.0242
@<TRIPOS>BOND
     1    14     7    1
     2    15     7    1
     3    16     7    1
     4     7     2    1
     5    13     6    1
     6    18     8    1
     7    12     6    1
     8     6    11    1
     9     6     1    1
    10     2     1    2
    11     2     3    1
    12     1     5    1
    13     8    19    1
    14     8     3    1
    15     8    17    1
    16     3     4    2
    17     5     4    1
    18     5    10    1
    19     4     9    1
    20    23    10    1
    21    10    25    1
    22    10    24    1
    23     9    21    1
    24     9    20    1
    25     9    22    1
