@<TRIPOS>MOLECULE
3,4,5,6,7
 34 34 0 0 0
SMALL
GASTEIGER

@<TRIPOS>ATOM
      1 SI          1.8009    6.4334   13.2126 Si      1  UNL1        0.0000
      2 SI          6.8943    4.2193   11.3008 Si      1  UNL1        0.0000
      3 C           3.0350    5.3439   12.3023 C.3     1  UNL1        0.0000
      4 C           2.7978    4.6163   11.1011 C.2     1  UNL1        0.0000
      5 C           4.0301    4.1314   10.6218 C.2     1  UNL1        0.0000
      6 C           5.0579    4.5556   11.5054 C.2     1  UNL1        0.0000
      7 C           4.4305    5.2941   12.5367 C.2     1  UNL1        0.0000
      8 C           0.2161    5.4476   13.6300 C.3     1  UNL1        0.0000
      9 C           2.5843    7.1926   14.7751 C.3     1  UNL1        0.0000
     10 C           1.3105    7.8496   12.0175 C.3     1  UNL1        0.0000
     11 C           7.6495    5.4008   10.0016 C.3     1  UNL1        0.0000
     12 C           7.0660    2.4145   10.6786 C.3     1  UNL1        0.0000
     13 C           7.7778    4.4466   12.9769 C.3     1  UNL1        0.0000
     14 H           1.8618    4.6167   10.5567 H       1  UNL1        0.0000
     15 H           4.2017    3.6608    9.6620 H       1  UNL1        0.0000
     16 H           4.9446    5.7997   13.3468 H       1  UNL1        0.0000
     17 H          -0.3696    5.2298   12.7406 H       1  UNL1        0.0000
     18 H           0.4680    4.5136   14.1238 H       1  UNL1        0.0000
     19 H          -0.4220    6.0136   14.3010 H       1  UNL1        0.0000
     20 H           3.4552    7.7940   14.5323 H       1  UNL1        0.0000
     21 H           1.8763    7.8355   15.2881 H       1  UNL1        0.0000
     22 H           2.8906    6.4158   15.4677 H       1  UNL1        0.0000
     23 H           0.5804    8.5051   12.4797 H       1  UNL1        0.0000
     24 H           2.1691    8.4541   11.7444 H       1  UNL1        0.0000
     25 H           0.8747    7.4693   11.0992 H       1  UNL1        0.0000
     26 H           7.1538    5.3095    9.0408 H       1  UNL1        0.0000
     27 H           7.5680    6.4365   10.3142 H       1  UNL1        0.0000
     28 H           8.7016    5.1837    9.8517 H       1  UNL1        0.0000
     29 H           6.7021    2.3028    9.6605 H       1  UNL1        0.0000
     30 H           8.0992    2.0816   10.6898 H       1  UNL1        0.0000
     31 H           6.4926    1.7483   11.3209 H       1  UNL1        0.0000
     32 H           7.2614    3.8869   13.7530 H       1  UNL1        0.0000
     33 H           7.8011    5.4899   13.2773 H       1  UNL1        0.0000
     34 H           8.8043    4.0952   12.9384 H       1  UNL1        0.0000
@<TRIPOS>BOND
     1    26    11    1
     2    29    12    1
     3    15     5    1
     4    28    11    1
     5    11    27    1
     6    11     2    1
     7    14     4    1
     8     5     4    2
     9     5     6    1
    10    12    30    1
    11    12     2    1
    12    12    31    1
    13    25    10    1
    14     4     3    1
    15     2     6    1
    16     2    13    1
    17     6     7    2
    18    24    10    1
    19    10    23    1
    20    10     1    1
    21     3     7    1
    22     3     1    1
    23     7    16    1
    24    17     8    1
    25    34    13    1
    26    13    33    1
    27    13    32    1
    28     1     8    1
    29     1     9    1
    30     8    18    1
    31     8    19    1
    32    20     9    1
    33     9    21    1
    34     9    22    1
