@<TRIPOS>MOLECULE
2,4,5,7,8
 27 29 0 0 0
SMALL
GASTEIGER

@<TRIPOS>ATOM
      1 N          -3.7220   10.9826   12.4181 N.ar    1  UNL1       -0.3162
      2 C          -2.1376    8.8567   12.3076 C.2     1  UNL1       -0.0380
      3 H          -2.0548    8.5124   11.2864 H       1  UNL1        0.0638
      4 C          -1.3557    8.3641   13.3871 C.2     1  UNL1       -0.0623
      5 C          -1.5884    9.1512   14.5463 C.3     1  UNL1        0.0178
      6 H          -1.0051    9.1132   15.4550 H       1  UNL1        0.0404
      7 C          -2.5208   10.1582   14.1783 C.ar    1  UNL1       -0.0142
      8 C          -2.8571    9.9636   12.8046 C.ar    1  UNL1        0.0503
      9 C          -3.1924   11.3500   14.5955 C.ar    1  UNL1       -0.0395
     10 H          -3.1353   11.8264   15.5565 H       1  UNL1        0.0636
     11 C          -3.9030   11.7994   13.5257 C.ar    1  UNL1        0.0107
     12 H          -4.5078   12.6823   13.4497 H       1  UNL1        0.0813
     13 C          -0.2779    7.3212   13.2563 C.3     1  UNL1       -0.0428
     14 H          -0.4698    6.6612   12.4102 H       1  UNL1        0.0275
     15 H          -0.2014    6.7178   14.1604 H       1  UNL1        0.0275
     16 H           0.6898    7.8018   13.0910 H       1  UNL1        0.0275
     17 C          -4.3822   11.1058   11.2075 C.ar    1  UNL1        0.0466
     18 C          -3.7955   10.6319   10.0305 C.ar    1  UNL1       -0.0378
     19 H          -2.7991   10.2215   10.0660 H       1  UNL1        0.0638
     20 C          -4.4661   10.7251    8.8267 C.ar    1  UNL1       -0.0598
     21 H          -3.9958   10.3593    7.9252 H       1  UNL1        0.0618
     22 C          -5.7278   11.2940    8.7671 C.ar    1  UNL1       -0.0616
     23 H          -6.2484   11.3668    7.8244 H       1  UNL1        0.0618
     24 C          -6.3125   11.7744    9.9278 C.ar    1  UNL1       -0.0598
     25 H          -7.2960   12.2198    9.8913 H       1  UNL1        0.0618
     26 C          -5.6549   11.6797   11.1380 C.ar    1  UNL1       -0.0378
     27 H          -6.1319   12.0357   12.0382 H       1  UNL1        0.0638
@<TRIPOS>BOND
     1    23    22    1
     2    21    20    1
     3    22    20   ar
     4    22    24   ar
     5    20    18   ar
     6    25    24    1
     7    24    26   ar
     8    18    19    1
     9    18    17   ar
    10    26    17   ar
    11    26    27    1
    12    17     1    1
    13     3     2    1
    14     2     8    1
    15     2     4    2
    16    14    13    1
    17     1     8   ar
    18     1    11   ar
    19     8     7   ar
    20    16    13    1
    21    13     4    1
    22    13    15    1
    23     4     5    1
    24    12    11    1
    25    11     9   ar
    26     7     5    1
    27     7     9   ar
    28     5     6    1
    29     9    10    1
