@<TRIPOS>MOLECULE
2,3,4,5,6
 25 26 0 0 0
SMALL
GASTEIGER

@<TRIPOS>ATOM
      1 S           5.7140    9.4465    2.1203 S.2     1  UNL1       -0.0975
      2 C           4.9650    6.5954    2.2167 C.3     1  UNL1        0.0166
      3 C           5.5418    5.4920    1.5196 C.3     1  UNL1       -0.0041
      4 C           6.7191    5.9175    0.8361 C.3     1  UNL1        0.0104
      5 C           6.8438    7.3179    1.0634 C.ar    1  UNL1       -0.0290
      6 C           5.7856    7.7064    1.9346 C.ar    1  UNL1        0.0011
      7 C           7.5457    8.4486    0.5473 C.ar    1  UNL1       -0.0478
      8 H           8.3488    8.3889   -0.1712 H       1  UNL1        0.0628
      9 C           7.0679    9.6323    1.0011 C.ar    1  UNL1       -0.0127
     10 C           3.6146    6.6308    2.8715 C.3     1  UNL1       -0.0536
     11 H           3.4897    7.5587    3.4273 H       1  UNL1        0.0239
     12 H           3.4732    5.7941    3.5533 H       1  UNL1        0.0239
     13 H           2.8293    6.5820    2.1128 H       1  UNL1        0.0239
     14 C           4.8589    4.1639    1.3390 C.3     1  UNL1       -0.0573
     15 H           4.4120    3.8144    2.2695 H       1  UNL1        0.0236
     16 H           5.5553    3.4081    0.9816 H       1  UNL1        0.0236
     17 H           4.0573    4.2572    0.6020 H       1  UNL1        0.0236
     18 C           7.4802    5.1264   -0.1958 C.3     1  UNL1       -0.0541
     19 H           7.8002    4.1555    0.1867 H       1  UNL1        0.0239
     20 H           8.3636    5.6756   -0.5194 H       1  UNL1        0.0239
     21 H           6.8547    4.9503   -1.0748 H       1  UNL1        0.0239
     22 C           7.5316   11.0081    0.6678 C.3     1  UNL1       -0.0334
     23 H           8.3832   10.9654   -0.0091 H       1  UNL1        0.0283
     24 H           7.8190   11.5546    1.5675 H       1  UNL1        0.0283
     25 H           6.7341   11.5723    0.1830 H       1  UNL1        0.0283
@<TRIPOS>BOND
     1    21    18    1
     2    20    18    1
     3    18    19    1
     4    18     4    1
     5     8     7    1
     6    23    22    1
     7    25    22    1
     8     7     9   ar
     9     7     5   ar
    10    17    14    1
    11    22     9    1
    12    22    24    1
    13     4     5    1
    14     4     3    1
    15    16    14    1
    16     9     1   ar
    17     5     6   ar
    18    14     3    1
    19    14    15    1
    20     3     2    1
    21     6     1   ar
    22     6     2    1
    23    13    10    1
    24     2    10    1
    25    10    11    1
    26    10    12    1
