@<TRIPOS>MOLECULE
1,3,5,7,9
 10 10 0 0 0
SMALL
GASTEIGER

@<TRIPOS>ATOM
      1 C          -2.4223   16.0509    4.6912 C.3     1  UNL1       -0.0127
      2 H          -2.8108   15.5841    3.7940 H       1  UNL1        0.0352
      3 C          -2.3054   15.4488    5.9650 C.3     1  UNL1       -0.0235
      4 H          -2.6276   14.4516    6.2247 H       1  UNL1        0.0315
      5 C          -1.8760   16.4387    6.8720 C.3     1  UNL1       -0.0127
      6 H          -1.8230   16.3293    7.9455 H       1  UNL1        0.0352
      7 C          -1.7311   17.6482    6.1571 C.2     1  UNL1       -0.0837
      8 H          -1.5378   18.6228    6.5861 H       1  UNL1        0.0572
      9 C          -2.0777   17.4090    4.8192 C.2     1  UNL1       -0.0837
     10 H          -2.1288   18.1497    4.0326 H       1  UNL1        0.0572
@<TRIPOS>BOND
     1     2     1    1
     2    10     9    1
     3     1     9    1
     4     1     3    1
     5     9     7    2
     6     3     4    1
     7     3     5    1
     8     7     8    1
     9     7     5    1
    10     5     6    1
