@<TRIPOS>MOLECULE
1,3,5,7,9
 10 10 0 0 0
SMALL
GASTEIGER

@<TRIPOS>ATOM
      1 C           1.1152   16.1248    7.4035 C.2     1  UNL1       -0.0763
      2 H           0.7637   15.8079    8.3740 H       1  UNL1        0.0578
      3 C           1.1094   17.4461    6.9130 C.2     1  UNL1       -0.0654
      4 H           0.7535   18.3169    7.4477 H       1  UNL1        0.0615
      5 C           1.8042   17.4617    5.6925 C.2     1  UNL1       -0.0654
      6 H           2.0269   18.3367    5.0949 H       1  UNL1        0.0615
      7 C           2.2602   16.1525    5.4331 C.2     1  UNL1       -0.0763
      8 H           2.9052   15.8619    4.6124 H       1  UNL1        0.0578
      9 C           1.8384   15.3238    6.4957 C.3     1  UNL1        0.0054
     10 H           2.1325   14.2987    6.6599 H       1  UNL1        0.0394
@<TRIPOS>BOND
     1     8     7    1
     2     6     5    1
     3     7     5    2
     4     7     9    1
     5     5     3    1
     6     9    10    1
     7     9     1    1
     8     3     1    2
     9     3     4    1
    10     1     2    1
