@<TRIPOS>MOLECULE
2,3,5,7,9
 22 22 0 0 0
SMALL
GASTEIGER

@<TRIPOS>ATOM
      1 SI          2.8704    8.4976    1.8308 Si      1  UNL1        0.0000
      2 C           3.0041    6.6166    1.9759 C.2     1  UNL1        0.0000
      3 C           2.9915    5.8785    3.1748 C.2     1  UNL1        0.0000
      4 H           2.8057    6.2840    4.1620 H       1  UNL1        0.0000
      5 C           3.1414    4.5024    2.8783 C.3     1  UNL1        0.0000
      6 H           3.0103    3.6821    3.5747 H       1  UNL1        0.0000
      7 C           3.2300    4.3789    1.4648 C.3     1  UNL1        0.0000
      8 H           3.1803    3.4506    0.9073 H       1  UNL1        0.0000
      9 C           3.1572    5.6845    0.9204 C.3     1  UNL1        0.0000
     10 H           3.0868    5.9145   -0.1363 H       1  UNL1        0.0000
     11 C           4.2610    9.3103    2.8551 C.3     1  UNL1        0.0000
     12 H           5.2463    9.0602    2.4644 H       1  UNL1        0.0000
     13 H           4.2303    8.9914    3.8948 H       1  UNL1        0.0000
     14 H           4.1703   10.3927    2.8445 H       1  UNL1        0.0000
     15 C           3.0002    8.9853   -0.0078 C.3     1  UNL1        0.0000
     16 H           2.1976    8.5500   -0.5966 H       1  UNL1        0.0000
     17 H           3.9452    8.6673   -0.4396 H       1  UNL1        0.0000
     18 H           2.9358   10.0631   -0.1180 H       1  UNL1        0.0000
     19 C           1.1690    8.9946    2.5393 C.3     1  UNL1        0.0000
     20 H           0.3551    8.5208    1.9994 H       1  UNL1        0.0000
     21 H           1.0323   10.0681    2.4646 H       1  UNL1        0.0000
     22 H           1.0721    8.7234    3.5859 H       1  UNL1        0.0000
@<TRIPOS>BOND
     1    16    15    1
     2    17    15    1
     3    10     9    1
     4    18    15    1
     5    15     1    1
     6     8     7    1
     7     9     7    1
     8     9     2    1
     9     7     5    1
    10     1     2    1
    11     1    19    1
    12     1    11    1
    13     2     3    2
    14    20    19    1
    15    12    11    1
    16    21    19    1
    17    19    22    1
    18    14    11    1
    19    11    13    1
    20     5     3    1
    21     5     6    1
    22     3     4    1
