@<TRIPOS>MOLECULE
1,2,3,4,5
 10 10 0 0 0
SMALL
GASTEIGER

@<TRIPOS>ATOM
      1 C           2.1702    6.5530    8.2590 C.2     1  UNL1       -0.0654
      2 C           1.8280    7.3386    9.3759 C.2     1  UNL1       -0.0654
      3 C           2.5517    6.8667   10.4800 C.2     1  UNL1       -0.0763
      4 C           3.3671    5.8076   10.0458 C.3     1  UNL1        0.0054
      5 C           3.1321    5.6083    8.6749 C.2     1  UNL1       -0.0763
      6 H           1.8563    6.7355    7.2395 H       1  UNL1        0.0615
      7 H           1.1958    8.2163    9.3706 H       1  UNL1        0.0615
      8 H           2.5715    7.3294   11.4598 H       1  UNL1        0.0578
      9 H           4.1521    5.3385   10.6258 H       1  UNL1        0.0394
     10 H           3.6914    4.9435    8.0307 H       1  UNL1        0.0578
@<TRIPOS>BOND
     1     6     1    1
     2    10     5    1
     3     1     5    2
     4     1     2    1
     5     5     4    1
     6     7     2    1
     7     2     3    2
     8     4     3    1
     9     4     9    1
    10     3     8    1
