@<TRIPOS>MOLECULE
2,3,4,5,6
 41 42 0 0 0
SMALL
GASTEIGER

@<TRIPOS>ATOM
      1 SI         -4.5306    2.4481    3.9682 Si      1  UNL1        0.0000
      2 C          -3.1806    3.6319    4.5221 C.3     1  UNL1        0.0000
      3 C          -3.1158    5.0002    4.1236 C.2     1  UNL1        0.0000
      4 C          -2.0465    5.6250    4.8177 C.2     1  UNL1        0.0000
      5 C          -1.4059    4.6412    5.6178 C.2     1  UNL1        0.0000
      6 C          -2.0998    3.4150    5.4579 C.2     1  UNL1        0.0000
      7 C          -4.1482    5.6961    3.2897 C.3     1  UNL1        0.0000
      8 H          -3.7617    6.6189    2.8576 H       1  UNL1        0.0000
      9 H          -4.5020    5.0515    2.4856 H       1  UNL1        0.0000
     10 H          -5.0118    5.9557    3.9079 H       1  UNL1        0.0000
     11 C          -1.8361    7.0988    4.9835 C.3     1  UNL1        0.0000
     12 H          -2.3137    7.6700    4.1916 H       1  UNL1        0.0000
     13 H          -2.2828    7.4106    5.9323 H       1  UNL1        0.0000
     14 H          -0.7801    7.3647    5.0214 H       1  UNL1        0.0000
     15 C          -0.3395    4.9320    6.6337 C.3     1  UNL1        0.0000
     16 H           0.2898    4.0624    6.8221 H       1  UNL1        0.0000
     17 H           0.3000    5.7534    6.3137 H       1  UNL1        0.0000
     18 H          -0.8044    5.2215    7.5809 H       1  UNL1        0.0000
     19 C          -1.9469    2.2152    6.3429 C.3     1  UNL1        0.0000
     20 H          -1.8978    1.2884    5.7702 H       1  UNL1        0.0000
     21 H          -1.0478    2.2898    6.9530 H       1  UNL1        0.0000
     22 H          -2.8060    2.1492    7.0138 H       1  UNL1        0.0000
     23 C          -4.4088    2.2617    2.0599 C.3     1  UNL1        0.0000
     24 H          -5.1241    2.8886    1.5341 H       1  UNL1        0.0000
     25 H          -4.5855    1.2360    1.7514 H       1  UNL1        0.0000
     26 H          -3.4036    2.5368    1.7344 H       1  UNL1        0.0000
     27 C          -4.4919    0.6948    4.7251 C.3     1  UNL1        0.0000
     28 H          -3.5849    0.1664    4.4500 H       1  UNL1        0.0000
     29 H          -4.5628    0.7131    5.8072 H       1  UNL1        0.0000
     30 H          -5.3365    0.1225    4.3533 H       1  UNL1        0.0000
     31 C          -6.1949    3.2305    4.4635 C.ar    1  UNL1        0.0000
     32 C          -7.3625    2.9310    3.7714 C.ar    1  UNL1        0.0000
     33 H          -7.3163    2.2574    2.9279 H       1  UNL1        0.0000
     34 C          -8.5775    3.4792    4.1414 C.ar    1  UNL1        0.0000
     35 H          -9.4733    3.2342    3.5881 H       1  UNL1        0.0000
     36 C          -8.6468    4.3419    5.2221 C.ar    1  UNL1        0.0000
     37 H          -9.5940    4.7726    5.5139 H       1  UNL1        0.0000
     38 C          -7.4956    4.6481    5.9282 C.ar    1  UNL1        0.0000
     39 H          -7.5441    5.3193    6.7745 H       1  UNL1        0.0000
     40 C          -6.2854    4.0958    5.5498 C.ar    1  UNL1        0.0000
     41 H          -5.3883    4.3404    6.1029 H       1  UNL1        0.0000
@<TRIPOS>BOND
     1    24    23    1
     2    26    23    1
     3    25    23    1
     4    23     1    1
     5     9     7    1
     6     8     7    1
     7    33    32    1
     8     7    10    1
     9     7     3    1
    10    35    34    1
    11    32    34   ar
    12    32    31   ar
    13     1    31    1
    14     1     2    1
    15     1    27    1
    16     3     2    1
    17     3     4    2
    18    34    36   ar
    19    12    11    1
    20    30    27    1
    21    28    27    1
    22    31    40   ar
    23     2     6    1
    24    27    29    1
    25     4    11    1
    26     4     5    1
    27    11    14    1
    28    11    13    1
    29    36    37    1
    30    36    38   ar
    31     6     5    2
    32     6    19    1
    33    40    38   ar
    34    40    41    1
    35     5    15    1
    36    20    19    1
    37    38    39    1
    38    17    15    1
    39    19    21    1
    40    19    22    1
    41    15    16    1
    42    15    18    1
