@<TRIPOS>MOLECULE
2,3,4,5,6
 41 42 0 0 0
SMALL
GASTEIGER

@<TRIPOS>ATOM
      1 SI          1.9178    2.4479    2.8613 Si      1  UNL1        0.0000
      2 C           0.5679    3.6317    2.3074 C.3     1  UNL1        0.0000
      3 C           0.5031    5.0001    2.7057 C.2     1  UNL1        0.0000
      4 C          -0.5663    5.6249    2.0118 C.2     1  UNL1        0.0000
      5 C          -1.2070    4.6411    1.2118 C.2     1  UNL1        0.0000
      6 C          -0.5131    3.4149    1.3717 C.2     1  UNL1        0.0000
      7 C           1.5354    5.6960    3.5398 C.3     1  UNL1        0.0000
      8 H           1.1487    6.6188    3.9719 H       1  UNL1        0.0000
      9 H           1.8892    5.0515    4.3439 H       1  UNL1        0.0000
     10 H           2.3990    5.9558    2.9217 H       1  UNL1        0.0000
     11 C          -0.7769    7.0987    1.8460 C.3     1  UNL1        0.0000
     12 H          -0.2993    7.6700    2.6379 H       1  UNL1        0.0000
     13 H          -0.3302    7.4106    0.8973 H       1  UNL1        0.0000
     14 H          -1.8328    7.3646    1.8082 H       1  UNL1        0.0000
     15 C          -2.2734    4.9319    0.1959 C.3     1  UNL1        0.0000
     16 H          -2.9025    4.0623    0.0073 H       1  UNL1        0.0000
     17 H          -2.9132    5.7531    0.5160 H       1  UNL1        0.0000
     18 H          -1.8085    5.2217   -0.7512 H       1  UNL1        0.0000
     19 C          -0.6659    2.2152    0.4866 C.3     1  UNL1        0.0000
     20 H          -0.7143    1.2882    1.0592 H       1  UNL1        0.0000
     21 H          -1.5654    2.2895   -0.1230 H       1  UNL1        0.0000
     22 H           0.1928    2.1498   -0.1848 H       1  UNL1        0.0000
     23 C           1.7953    2.2618    4.7696 C.3     1  UNL1        0.0000
     24 H           2.5109    2.8884    5.2954 H       1  UNL1        0.0000
     25 H           1.9721    1.2360    5.0779 H       1  UNL1        0.0000
     26 H           0.7902    2.5370    5.0956 H       1  UNL1        0.0000
     27 C           1.8789    0.6946    2.1045 C.3     1  UNL1        0.0000
     28 H           0.9722    0.1657    2.3796 H       1  UNL1        0.0000
     29 H           1.9500    0.7130    1.0224 H       1  UNL1        0.0000
     30 H           2.7238    0.1228    2.4764 H       1  UNL1        0.0000
     31 C           3.5819    3.2308    2.3662 C.ar    1  UNL1        0.0000
     32 C           4.7496    2.9311    3.0581 C.ar    1  UNL1        0.0000
     33 H           4.7035    2.2574    3.9015 H       1  UNL1        0.0000
     34 C           5.9646    3.4791    2.6879 C.ar    1  UNL1        0.0000
     35 H           6.8605    3.2344    3.2412 H       1  UNL1        0.0000
     36 C           6.0338    4.3418    1.6072 C.ar    1  UNL1        0.0000
     37 H           6.9809    4.7728    1.3154 H       1  UNL1        0.0000
     38 C           4.8825    4.6482    0.9012 C.ar    1  UNL1        0.0000
     39 H           4.9309    5.3194    0.0549 H       1  UNL1        0.0000
     40 C           3.6723    4.0960    1.2799 C.ar    1  UNL1        0.0000
     41 H           2.7752    4.3403    0.7267 H       1  UNL1        0.0000
@<TRIPOS>BOND
     1    18    15    1
     2    22    19    1
     3    21    19    1
     4    16    15    1
     5    39    38    1
     6    15    17    1
     7    15     5    1
     8    19    20    1
     9    19     6    1
    10    41    40    1
    11    13    11    1
    12    38    40   ar
    13    38    36   ar
    14    29    27    1
    15     5     6    2
    16     5     4    1
    17    40    31   ar
    18    37    36    1
    19     6     2    1
    20    36    34   ar
    21    14    11    1
    22    11     4    1
    23    11    12    1
    24     4     3    2
    25    27    28    1
    26    27    30    1
    27    27     1    1
    28     2     3    1
    29     2     1    1
    30    31     1    1
    31    31    32   ar
    32    34    32   ar
    33    34    35    1
    34     3     7    1
    35     1    23    1
    36    10     7    1
    37    32    33    1
    38     7     8    1
    39     7     9    1
    40    23    25    1
    41    23    26    1
    42    23    24    1
