@<TRIPOS>MOLECULE
1,2,3,4,5
 10 10 0 0 0
SMALL
GASTEIGER

@<TRIPOS>ATOM
      1 C           3.7968    3.0082   -0.9850 C.3     1  UNL1        0.0054
      2 C           3.3180    4.2793   -0.5874 C.2     1  UNL1       -0.0763
      3 C           4.2960    4.8838    0.2035 C.2     1  UNL1       -0.0654
      4 C           5.4027    4.0046    0.2807 C.2     1  UNL1       -0.0654
      5 C           5.1090    2.8641   -0.4802 C.2     1  UNL1       -0.0763
      6 H           3.3315    2.3633   -1.7183 H       1  UNL1        0.0394
      7 H           2.3954    4.7335   -0.9184 H       1  UNL1        0.0578
      8 H           4.2697    5.8907    0.5952 H       1  UNL1        0.0615
      9 H           6.3611    4.2477    0.7128 H       1  UNL1        0.0615
     10 H           5.7972    2.0715   -0.7345 H       1  UNL1        0.0578
@<TRIPOS>BOND
     1     6     1    1
     2     1     2    1
     3     1     5    1
     4     7     2    1
     5    10     5    1
     6     2     3    2
     7     5     4    2
     8     3     4    1
     9     3     8    1
    10     4     9    1
