@<TRIPOS>MOLECULE
4,5,7,8,10
 31 31 0 0 0
SMALL
GASTEIGER

@<TRIPOS>ATOM
      1 SI          7.8417    6.6960    5.6799 Si      1  UNL1        0.0000
      2 SI         11.2024    2.9066    8.7459 Si      1  UNL1        0.0000
      3 CL          9.9762    2.2459   10.2634 Cl      1  UNL1        0.0000
      4 C           9.9916    3.6194    7.4820 C.3     1  UNL1        0.0000
      5 C           9.7991    4.9849    7.1406 C.3     1  UNL1        0.0000
      6 H          10.3275    5.8178    7.5896 H       1  UNL1        0.0000
      7 C           8.6897    5.1043    6.2638 C.3     1  UNL1        0.0000
      8 C           8.2059    3.7886    6.0514 C.2     1  UNL1        0.0000
      9 H           7.3149    3.5331    5.4921 H       1  UNL1        0.0000
     10 C           8.9938    2.8882    6.7907 C.2     1  UNL1        0.0000
     11 H           8.8114    1.8264    6.8971 H       1  UNL1        0.0000
     12 C          12.1466    1.4018    8.0711 C.3     1  UNL1        0.0000
     13 H          11.4649    0.6243    7.7339 H       1  UNL1        0.0000
     14 H          12.7853    0.9701    8.8364 H       1  UNL1        0.0000
     15 H          12.7721    1.6776    7.2264 H       1  UNL1        0.0000
     16 C          12.3045    4.2885    9.4487 C.3     1  UNL1        0.0000
     17 H          11.7149    5.0648    9.9298 H       1  UNL1        0.0000
     18 H          12.9057    4.7479    8.6704 H       1  UNL1        0.0000
     19 H          12.9807    3.8851   10.1960 H       1  UNL1        0.0000
     20 C           7.5821    6.6782    3.7944 C.3     1  UNL1        0.0000
     21 H           7.0205    5.8026    3.4782 H       1  UNL1        0.0000
     22 H           8.5307    6.6653    3.2636 H       1  UNL1        0.0000
     23 H           7.0317    7.5569    3.4720 H       1  UNL1        0.0000
     24 C           8.8598    8.1890    6.2832 C.3     1  UNL1        0.0000
     25 H           8.9169    8.2237    7.3678 H       1  UNL1        0.0000
     26 H           8.3979    9.1138    5.9534 H       1  UNL1        0.0000
     27 H           9.8717    8.1690    5.8903 H       1  UNL1        0.0000
     28 C           6.1465    6.6661    6.5632 C.3     1  UNL1        0.0000
     29 H           5.5325    5.8327    6.2360 H       1  UNL1        0.0000
     30 H           5.6015    7.5781    6.3465 H       1  UNL1        0.0000
     31 H           6.2511    6.5947    7.6415 H       1  UNL1        0.0000
@<TRIPOS>BOND
     1    22    20    1
     2    23    20    1
     3    21    20    1
     4    20     1    1
     5     9     8    1
     6     1     7    1
     7     1    24    1
     8     1    28    1
     9    27    24    1
    10    26    24    1
    11     8     7    1
    12     8    10    2
    13    29    28    1
    14     7     5    1
    15    24    25    1
    16    30    28    1
    17    28    31    1
    18    10    11    1
    19    10     4    1
    20     5     4    1
    21     5     6    1
    22    15    12    1
    23     4     2    1
    24    13    12    1
    25    12     2    1
    26    12    14    1
    27    18    16    1
    28     2    16    1
    29     2     3    1
    30    16    17    1
    31    16    19    1
