@<TRIPOS>MOLECULE
2,3,4,5,6
 22 22 0 0 0
SMALL
GASTEIGER

@<TRIPOS>ATOM
      1 SI         -0.2141    5.9903    5.0123 Si      1  UNL1        0.0000
      2 C           0.4426    4.5705    3.9505 C.2     1  UNL1        0.0000
      3 C          -0.2737    3.4625    3.4213 C.3     1  UNL1        0.0000
      4 C           0.4966    2.8613    2.4072 C.2     1  UNL1        0.0000
      5 C           1.6953    3.5887    2.2862 C.2     1  UNL1        0.0000
      6 C           1.6698    4.6280    3.2355 C.2     1  UNL1        0.0000
      7 C          -0.7637    7.3342    3.7619 C.3     1  UNL1        0.0000
      8 C           1.1490    6.6856    6.1477 C.3     1  UNL1        0.0000
      9 C          -1.7337    5.4654    6.0451 C.3     1  UNL1        0.0000
     10 H          -1.3049    3.2253    3.6445 H       1  UNL1        0.0000
     11 H           0.1623    2.0772    1.7392 H       1  UNL1        0.0000
     12 H           2.4413    3.4512    1.5143 H       1  UNL1        0.0000
     13 H           2.3814    5.4401    3.3056 H       1  UNL1        0.0000
     14 H          -1.5512    6.9756    3.1062 H       1  UNL1        0.0000
     15 H          -1.1430    8.2064    4.2837 H       1  UNL1        0.0000
     16 H           0.0607    7.6595    3.1348 H       1  UNL1        0.0000
     17 H           2.0121    7.0258    5.5825 H       1  UNL1        0.0000
     18 H           0.7857    7.5279    6.7281 H       1  UNL1        0.0000
     19 H           1.4965    5.9269    6.8435 H       1  UNL1        0.0000
     20 H          -2.4531    4.8990    5.4612 H       1  UNL1        0.0000
     21 H          -1.4419    4.8607    6.8983 H       1  UNL1        0.0000
     22 H          -2.2453    6.3429    6.4276 H       1  UNL1        0.0000
@<TRIPOS>BOND
     1    12     5    1
     2    11     4    1
     3     5     4    2
     4     5     6    1
     5     4     3    1
     6    14     7    1
     7    16     7    1
     8     6    13    1
     9     6     2    2
    10     3    10    1
    11     3     2    1
    12     7    15    1
    13     7     1    1
    14     2     1    1
    15     1     9    1
    16     1     8    1
    17    20     9    1
    18    17     8    1
    19     9    22    1
    20     9    21    1
    21     8    18    1
    22     8    19    1
