@<TRIPOS>MOLECULE
2,3,4,5,6
 22 22 0 0 0
SMALL
GASTEIGER

@<TRIPOS>ATOM
      1 SI          3.6418    0.4425    7.2763 Si      1  UNL1        0.0000
      2 C           3.0050    0.6623    5.5109 C.2     1  UNL1        0.0000
      3 C           3.7438    1.2204    4.4303 C.2     1  UNL1        0.0000
      4 C           3.0466    0.9816    3.2322 C.2     1  UNL1        0.0000
      5 C           1.8621    0.2852    3.5475 C.2     1  UNL1        0.0000
      6 C           1.8453    0.0759    4.9397 C.3     1  UNL1        0.0000
      7 C           3.9128   -1.4339    7.5381 C.3     1  UNL1        0.0000
      8 C           5.3055    1.3615    7.4436 C.3     1  UNL1        0.0000
      9 C           2.3821    1.0786    8.5652 C.3     1  UNL1        0.0000
     10 H           4.7460    1.6184    4.5042 H       1  UNL1        0.0000
     11 H           3.4233    1.1690    2.2351 H       1  UNL1        0.0000
     12 H           1.1753   -0.1562    2.8359 H       1  UNL1        0.0000
     13 H           1.1410   -0.5512    5.4690 H       1  UNL1        0.0000
     14 H           4.6256   -1.8360    6.8253 H       1  UNL1        0.0000
     15 H           4.2993   -1.6261    8.5331 H       1  UNL1        0.0000
     16 H           2.9899   -1.9952    7.4306 H       1  UNL1        0.0000
     17 H           5.1982    2.4187    7.2201 H       1  UNL1        0.0000
     18 H           5.6931    1.2747    8.4538 H       1  UNL1        0.0000
     19 H           6.0564    0.9561    6.7715 H       1  UNL1        0.0000
     20 H           1.9540    2.0281    8.2506 H       1  UNL1        0.0000
     21 H           1.5655    0.3762    8.7093 H       1  UNL1        0.0000
     22 H           2.8550    1.2263    9.5317 H       1  UNL1        0.0000
@<TRIPOS>BOND
     1    11     4    1
     2    12     5    1
     3     4     5    2
     4     4     3    1
     5     5     6    1
     6     3    10    1
     7     3     2    2
     8     6    13    1
     9     6     2    1
    10     2     1    1
    11    19     8    1
    12    14     7    1
    13    17     8    1
    14     1     8    1
    15     1     7    1
    16     1     9    1
    17    16     7    1
    18     8    18    1
    19     7    15    1
    20    20     9    1
    21     9    21    1
    22     9    22    1
