@<TRIPOS>MOLECULE
1,2,3,4,5
 25 25 0 0 0
SMALL
GASTEIGER

@<TRIPOS>ATOM
      1 C          -0.2157    4.3494   17.6948 C.2     1  UNL1       -0.0658
      2 C           0.4274    5.0471   18.7648 C.3     1  UNL1        0.0052
      3 C           1.7420    4.5284   18.8932 C.3     1  UNL1       -0.0053
      4 C           1.9009    3.4706   17.9400 C.3     1  UNL1        0.0052
      5 C           0.6825    3.3609   17.2203 C.2     1  UNL1       -0.0658
      6 C          -1.6491    4.4177   17.2772 C.3     1  UNL1       -0.0430
      7 H          -2.1802    5.2162   17.7890 H       1  UNL1        0.0275
      8 H          -2.1508    3.4750   17.5051 H       1  UNL1        0.0275
      9 H          -1.7196    4.5802   16.2028 H       1  UNL1        0.0275
     10 C          -0.2363    5.9004   19.7985 C.3     1  UNL1       -0.0545
     11 H           0.3742    6.7582   20.0679 H       1  UNL1        0.0239
     12 H          -0.3857    5.3052   20.7026 H       1  UNL1        0.0239
     13 H          -1.2104    6.2488   19.4672 H       1  UNL1        0.0239
     14 C           2.7039    4.8604   19.9892 C.3     1  UNL1       -0.0574
     15 H           3.7302    4.7191   19.6612 H       1  UNL1        0.0236
     16 H           2.5299    4.2141   20.8522 H       1  UNL1        0.0236
     17 H           2.5851    5.8913   20.3137 H       1  UNL1        0.0236
     18 C           3.0215    2.4818   17.9243 C.3     1  UNL1       -0.0545
     19 H           3.1958    2.1006   16.9223 H       1  UNL1        0.0239
     20 H           2.7770    1.6378   18.5739 H       1  UNL1        0.0239
     21 H           3.9478    2.9280   18.2771 H       1  UNL1        0.0239
     22 C           0.3357    2.3439   16.1870 C.3     1  UNL1       -0.0430
     23 H          -0.1111    2.8290   15.3222 H       1  UNL1        0.0275
     24 H          -0.3854    1.6306   16.5922 H       1  UNL1        0.0275
     25 H           1.2173    1.8028   15.8590 H       1  UNL1        0.0275
@<TRIPOS>BOND
     1    23    22    1
     2    25    22    1
     3    22    24    1
     4    22     5    1
     5     9     6    1
     6    19    18    1
     7     5     1    2
     8     5     4    1
     9     6     8    1
    10     6     1    1
    11     6     7    1
    12     1     2    1
    13    18     4    1
    14    18    21    1
    15    18    20    1
    16     4     3    1
    17     2     3    1
    18     2    10    1
    19     3    14    1
    20    13    10    1
    21    15    14    1
    22    10    11    1
    23    10    12    1
    24    14    17    1
    25    14    16    1
