@<TRIPOS>MOLECULE
1,2,3,4,9
 25 25 0 0 0
SMALL
GASTEIGER

@<TRIPOS>ATOM
      1 C           4.7549    1.8410    1.3161 C.3     1  UNL1        0.0052
      2 C           5.7844    1.9549    2.3120 C.2     1  UNL1       -0.0658
      3 C           5.5282    0.9856    3.3089 C.2     1  UNL1       -0.0658
      4 C           4.3440    0.2742    2.9426 C.3     1  UNL1        0.0052
      5 C           4.7713    2.4372   -0.0588 C.3     1  UNL1       -0.0545
      6 H           3.8259    2.9252   -0.2914 H       1  UNL1        0.0239
      7 H           4.9243    1.6473   -0.7964 H       1  UNL1        0.0239
      8 H           5.5763    3.1580   -0.1734 H       1  UNL1        0.0239
      9 C           3.9110    0.7570    1.6732 C.3     1  UNL1       -0.0053
     10 C           7.0607    2.7184    2.1484 C.3     1  UNL1       -0.0430
     11 H           6.9024    3.6684    1.6446 H       1  UNL1        0.0275
     12 H           7.7530    2.1292    1.5421 H       1  UNL1        0.0275
     13 H           7.5359    2.9076    3.1077 H       1  UNL1        0.0275
     14 C           2.9650    0.0831    0.7377 C.3     1  UNL1       -0.0574
     15 H           2.2684   -0.5589    1.2674 H       1  UNL1        0.0236
     16 H           3.5365   -0.5325    0.0388 H       1  UNL1        0.0236
     17 H           2.3952    0.8060    0.1606 H       1  UNL1        0.0236
     18 C           6.4062    0.5954    4.4566 C.3     1  UNL1       -0.0430
     19 H           7.2197    1.3022    4.5980 H       1  UNL1        0.0275
     20 H           6.8391   -0.3884    4.2674 H       1  UNL1        0.0275
     21 H           5.8353    0.5329    5.3822 H       1  UNL1        0.0275
     22 C           3.8692   -0.9621    3.6350 C.3     1  UNL1       -0.0545
     23 H           3.8809   -0.8282    4.7147 H       1  UNL1        0.0239
     24 H           4.5280   -1.7984    3.3925 H       1  UNL1        0.0239
     25 H           2.8581   -1.2195    3.3323 H       1  UNL1        0.0239
@<TRIPOS>BOND
     1     7     5    1
     2     6     5    1
     3     8     5    1
     4     5     1    1
     5    16    14    1
     6    17    14    1
     7    14    15    1
     8    14     9    1
     9     1     9    1
    10     1     2    1
    11    12    10    1
    12    11    10    1
    13     9     4    1
    14    10     2    1
    15    10    13    1
    16     2     3    2
    17     4     3    1
    18     4    22    1
    19     3    18    1
    20    25    22    1
    21    24    22    1
    22    22    23    1
    23    20    18    1
    24    18    19    1
    25    18    21    1
