@<TRIPOS>MOLECULE
1,2,3,4,5
 25 25 0 0 0
SMALL
GASTEIGER

@<TRIPOS>ATOM
      1 C           7.2869   16.5583    4.3994 C.2     1  UNL1       -0.0658
      2 C           6.1174   15.7679    4.3359 C.2     1  UNL1       -0.0658
      3 C           6.0571   14.9717    5.5205 C.3     1  UNL1        0.0052
      4 C           7.2216   15.2340    6.2962 C.3     1  UNL1       -0.0053
      5 C           7.9492   16.2694    5.6400 C.3     1  UNL1        0.0052
      6 C           7.8844   17.2974    3.2442 C.3     1  UNL1       -0.0430
      7 H           7.1280   17.8146    2.6584 H       1  UNL1        0.0275
      8 H           8.3838   16.5814    2.5872 H       1  UNL1        0.0275
      9 H           8.6302   18.0175    3.5699 H       1  UNL1        0.0275
     10 C           5.1917   15.5960    3.1726 C.3     1  UNL1       -0.0430
     11 H           4.1518   15.6813    3.4856 H       1  UNL1        0.0275
     12 H           5.3273   14.6025    2.7407 H       1  UNL1        0.0275
     13 H           5.3844   16.3316    2.3959 H       1  UNL1        0.0275
     14 C           5.0660   13.8710    5.7213 C.3     1  UNL1       -0.0545
     15 H           5.1855   13.4123    6.6961 H       1  UNL1        0.0239
     16 H           5.2050   13.1035    4.9576 H       1  UNL1        0.0239
     17 H           4.0475   14.2464    5.6361 H       1  UNL1        0.0239
     18 C           7.7257   14.3744    7.4078 C.3     1  UNL1       -0.0574
     19 H           8.4082   14.9161    8.0535 H       1  UNL1        0.0236
     20 H           8.2596   13.5206    6.9834 H       1  UNL1        0.0236
     21 H           6.9146   13.9982    8.0246 H       1  UNL1        0.0236
     22 C           9.3495   16.6806    5.9780 C.3     1  UNL1       -0.0545
     23 H           9.5426   17.7133    5.6988 H       1  UNL1        0.0239
     24 H          10.0631   16.0484    5.4446 H       1  UNL1        0.0239
     25 H           9.5371   16.5762    7.0423 H       1  UNL1        0.0239
@<TRIPOS>BOND
     1    13    10    1
     2     8     6    1
     3     7     6    1
     4    12    10    1
     5    10    11    1
     6    10     2    1
     7     6     9    1
     8     6     1    1
     9     2     1    2
    10     2     3    1
    11     1     5    1
    12    16    14    1
    13    24    22    1
    14     3    14    1
    15     3     4    1
    16    17    14    1
    17     5    22    1
    18     5     4    1
    19    23    22    1
    20    14    15    1
    21    22    25    1
    22     4    18    1
    23    20    18    1
    24    18    21    1
    25    18    19    1
