@<TRIPOS>MOLECULE
1,2,3,4,5
 10 10 0 0 0
SMALL
GASTEIGER

@<TRIPOS>ATOM
      1 C          19.1151   -0.0759    2.4421 C.3     1  UNL1       -0.0127
      2 C          18.9970    1.2691    2.0459 C.2     1  UNL1       -0.0837
      3 C          19.7656    2.0575    2.9133 C.2     1  UNL1       -0.0837
      4 C          20.3513    1.2079    3.8695 C.3     1  UNL1       -0.0127
      5 C          19.9534   -0.1183    3.5842 C.3     1  UNL1       -0.0235
      6 H          18.5310   -0.8982    2.0449 H       1  UNL1        0.0352
      7 H          18.3255    1.6521    1.2902 H       1  UNL1        0.0572
      8 H          19.7834    3.1373    2.9348 H       1  UNL1        0.0572
      9 H          20.8536    1.5417    4.7647 H       1  UNL1        0.0352
     10 H          20.0893   -0.9620    4.2477 H       1  UNL1        0.0315
@<TRIPOS>BOND
     1     7     2    1
     2     6     1    1
     3     2     1    1
     4     2     3    2
     5     1     5    1
     6     3     8    1
     7     3     4    1
     8     5     4    1
     9     5    10    1
    10     4     9    1
