@<TRIPOS>MOLECULE
1,2,3,4,5
 10 10 0 0 0
SMALL
GASTEIGER

@<TRIPOS>ATOM
      1 C          20.8091    1.4478   -0.4749 C.2     1  UNL1       -0.0763
      2 C          22.1712    1.0661   -0.5650 C.3     1  UNL1        0.0054
      3 C          22.2137   -0.3447   -0.6414 C.2     1  UNL1       -0.0763
      4 C          20.8929   -0.8270   -0.5977 C.2     1  UNL1       -0.0654
      5 C          20.0316    0.2752   -0.5084 C.2     1  UNL1       -0.0654
      6 H          20.4205    2.4576   -0.5418 H       1  UNL1        0.0578
      7 H          23.0084    1.7227   -0.7619 H       1  UNL1        0.0394
      8 H          23.0795   -0.9426   -0.8824 H       1  UNL1        0.0578
      9 H          20.5911   -1.8519   -0.7565 H       1  UNL1        0.0615
     10 H          18.9546    0.2292   -0.5894 H       1  UNL1        0.0615
@<TRIPOS>BOND
     1     8     3    1
     2     7     2    1
     3     9     4    1
     4     3     4    2
     5     3     2    1
     6     4     5    1
     7    10     5    1
     8     2     1    1
     9     6     1    1
    10     5     1    2
