@<TRIPOS>MOLECULE
3,4,5,6,8
 38 39 0 0 0
SMALL
GASTEIGER

@<TRIPOS>ATOM
      1 SI         -0.1349    2.1220    6.9705 Si      1  UNL1        0.0000
      2 SI         -1.5474    2.7384    0.5274 Si      1  UNL1        0.0000
      3 C          -0.0196    3.4838    5.6679 C.3     1  UNL1        0.0000
      4 C          -0.8569    3.5309    4.4948 C.3     1  UNL1        0.0000
      5 C          -1.1044    2.5978    3.4244 C.3     1  UNL1        0.0000
      6 C          -1.3902    3.4393    2.2651 C.2     1  UNL1        0.0000
      7 C          -1.2508    4.7730    2.6063 C.2     1  UNL1        0.0000
      8 C          -0.8470    4.8567    3.9635 C.3     1  UNL1        0.0000
      9 C          -0.1777    5.6857    4.9041 C.2     1  UNL1        0.0000
     10 C           0.3189    4.8720    5.8993 C.2     1  UNL1        0.0000
     11 C           1.2860    2.3147    8.2239 C.3     1  UNL1        0.0000
     12 C          -1.8377    2.2515    7.8243 C.3     1  UNL1        0.0000
     13 C          -0.0015    0.4405    6.0667 C.3     1  UNL1        0.0000
     14 C          -1.8326    0.8577    0.6546 C.3     1  UNL1        0.0000
     15 C          -2.9865    3.5839   -0.3961 C.3     1  UNL1        0.0000
     16 C           0.1046    3.0854   -0.3650 C.3     1  UNL1        0.0000
     17 H          -1.6243    1.6531    3.5348 H       1  UNL1        0.0000
     18 H          -1.3722    5.6004    1.9287 H       1  UNL1        0.0000
     19 H          -0.0326    6.7492    4.8272 H       1  UNL1        0.0000
     20 H           0.8864    5.2107    6.7500 H       1  UNL1        0.0000
     21 H           1.2049    3.2454    8.7764 H       1  UNL1        0.0000
     22 H           2.2493    2.3065    7.7238 H       1  UNL1        0.0000
     23 H           1.2795    1.5055    8.9466 H       1  UNL1        0.0000
     24 H          -1.9378    3.1912    8.3576 H       1  UNL1        0.0000
     25 H          -1.9707    1.4496    8.5424 H       1  UNL1        0.0000
     26 H          -2.6506    2.1940    7.1073 H       1  UNL1        0.0000
     27 H          -0.8698    0.2524    5.4418 H       1  UNL1        0.0000
     28 H           0.0645   -0.3782    6.7764 H       1  UNL1        0.0000
     29 H           0.8848    0.3965    5.4331 H       1  UNL1        0.0000
     30 H          -2.7433    0.6220    1.1969 H       1  UNL1        0.0000
     31 H          -1.0037    0.3754    1.1644 H       1  UNL1        0.0000
     32 H          -1.9169    0.4103   -0.3306 H       1  UNL1        0.0000
     33 H          -2.8423    4.6574   -0.4594 H       1  UNL1        0.0000
     34 H          -3.9362    3.4088    0.0988 H       1  UNL1        0.0000
     35 H          -3.0674    3.2033   -1.4090 H       1  UNL1        0.0000
     36 H           0.3120    4.1509   -0.4082 H       1  UNL1        0.0000
     37 H           0.0983    2.7108   -1.3838 H       1  UNL1        0.0000
     38 H           0.9321    2.6114    0.1572 H       1  UNL1        0.0000
@<TRIPOS>BOND
     1    35    15    1
     2    37    16    1
     3    33    15    1
     4    36    16    1
     5    15    34    1
     6    15     2    1
     7    16    38    1
     8    16     2    1
     9    32    14    1
    10     2    14    1
    11     2     6    1
    12    14    31    1
    13    14    30    1
    14    18     7    1
    15     6     7    2
    16     6     5    1
    17     7     8    1
    18     5    17    1
    19     5     4    1
    20     8     4    1
    21     8     9    1
    22     4     3    1
    23    19     9    1
    24     9    10    2
    25    29    13    1
    26    27    13    1
    27     3    10    1
    28     3     1    1
    29    10    20    1
    30    13    28    1
    31    13     1    1
    32     1    12    1
    33     1    11    1
    34    26    12    1
    35    22    11    1
    36    12    24    1
    37    12    25    1
    38    11    21    1
    39    11    23    1
