@<TRIPOS>MOLECULE
1,2,3,4,5
 25 25 0 0 0
SMALL
GASTEIGER

@<TRIPOS>ATOM
      1 C           0.1149    0.8139    2.8991 C.2     1  UNL1       -0.0477
      2 C           1.1073    1.6913    3.4578 C.2     1  UNL1       -0.0477
      3 C           1.1803    2.8469    2.6270 C.2     1  UNL1       -0.0584
      4 C           0.1928    2.7153    1.5925 C.3     1  UNL1        0.0231
      5 C          -0.4448    1.4420    1.7604 C.2     1  UNL1       -0.0584
      6 C          -0.1259   -0.6122    3.2867 C.3     1  UNL1       -0.0395
      7 C           2.1640    1.3078    4.4538 C.3     1  UNL1       -0.0395
      8 C           2.2419    3.9001    2.6919 C.3     1  UNL1       -0.0424
      9 C           0.0873    3.5798    0.3736 C.3     1  UNL1       -0.0510
     10 C          -1.3749    0.8029    0.7749 C.3     1  UNL1       -0.0424
     11 H          -1.1916   -0.8462    3.3306 H       1  UNL1        0.0278
     12 H           0.3302   -1.2742    2.5464 H       1  UNL1        0.0278
     13 H           0.3132   -0.8378    4.2568 H       1  UNL1        0.0278
     14 H           1.8388    0.4889    5.0933 H       1  UNL1        0.0278
     15 H           3.0684    0.9891    3.9286 H       1  UNL1        0.0278
     16 H           2.4266    2.1497    5.0944 H       1  UNL1        0.0278
     17 H           2.5537    4.0802    3.7193 H       1  UNL1        0.0275
     18 H           3.1153    3.5782    2.1194 H       1  UNL1        0.0275
     19 H           1.8879    4.8415    2.2765 H       1  UNL1        0.0275
     20 H           0.3225    4.6165    0.6075 H       1  UNL1        0.0242
     21 H           0.7909    3.2331   -0.3875 H       1  UNL1        0.0242
     22 H          -0.9152    3.5450   -0.0501 H       1  UNL1        0.0242
     23 H          -2.0770    1.5264    0.3604 H       1  UNL1        0.0275
     24 H          -0.8018    0.3808   -0.0547 H       1  UNL1        0.0275
     25 H          -1.9429   -0.0047    1.2350 H       1  UNL1        0.0275
@<TRIPOS>BOND
     1    21     9    1
     2    24    10    1
     3    22     9    1
     4    23    10    1
     5     9    20    1
     6     9     4    1
     7    10    25    1
     8    10     5    1
     9     4     5    1
    10     4     3    1
    11     5     1    2
    12    18     8    1
    13    19     8    1
    14    12     6    1
    15     3     8    1
    16     3     2    2
    17     8    17    1
    18     1     6    1
    19     1     2    1
    20     6    11    1
    21     6    13    1
    22     2     7    1
    23    15     7    1
    24     7    14    1
    25     7    16    1
