@<TRIPOS>MOLECULE
1,3,5,7,9
 10 10 0 0 0
SMALL
GASTEIGER

@<TRIPOS>ATOM
      1 C           5.6954   10.9863   15.4328 C.2     1  UNL1       -0.0763
      2 H           5.4604   11.3943   14.4580 H       1  UNL1        0.0578
      3 C           4.8248   10.1878   16.2184 C.2     1  UNL1       -0.0654
      4 H           3.8417    9.8541   15.9204 H       1  UNL1        0.0615
      5 C           5.4276   10.0034   17.4786 C.2     1  UNL1       -0.0654
      6 H           4.9651    9.5569   18.3524 H       1  UNL1        0.0615
      7 C           6.6588   10.7508   17.4976 C.2     1  UNL1       -0.0763
      8 H           7.2545   10.9441   18.3794 H       1  UNL1        0.0578
      9 C           6.8051   11.3642   16.2409 C.3     1  UNL1        0.0054
     10 H           7.5730   12.0741   15.9678 H       1  UNL1        0.0394
@<TRIPOS>BOND
     1     2     1    1
     2     1     3    2
     3     1     9    1
     4     4     3    1
     5    10     9    1
     6     3     5    1
     7     9     7    1
     8     5     7    2
     9     5     6    1
    10     7     8    1
