@<TRIPOS>MOLECULE
1,2,3,4,5
 25 25 0 0 0
SMALL
GASTEIGER

@<TRIPOS>ATOM
      1 C           1.9834   -1.2746   10.6168 C.3     1  UNL1       -0.0053
      2 C           1.4209   -1.2226   11.9585 C.3     1  UNL1        0.0052
      3 C           2.5269   -1.1696   12.8668 C.2     1  UNL1       -0.0658
      4 C           3.7218   -1.1516   12.1439 C.2     1  UNL1       -0.0658
      5 C           3.4315   -1.1922   10.7420 C.3     1  UNL1        0.0052
      6 C           1.2692   -1.8569    9.4216 C.3     1  UNL1       -0.0574
      7 H           1.3021   -2.9501    9.4533 H       1  UNL1        0.0236
      8 H           1.7351   -1.5260    8.4935 H       1  UNL1        0.0236
      9 H           0.2251   -1.5450    9.4052 H       1  UNL1        0.0236
     10 C           0.0370   -1.7141   12.2863 C.3     1  UNL1       -0.0545
     11 H          -0.7062   -1.2625   11.6309 H       1  UNL1        0.0239
     12 H          -0.2376   -1.4946   13.3152 H       1  UNL1        0.0239
     13 H          -0.0097   -2.7987   12.1512 H       1  UNL1        0.0239
     14 C           2.4718   -1.2722   14.3640 C.3     1  UNL1       -0.0430
     15 H           3.0612   -2.1305   14.6952 H       1  UNL1        0.0275
     16 H           1.4521   -1.4144   14.7131 H       1  UNL1        0.0275
     17 H           2.8851   -0.3822   14.8414 H       1  UNL1        0.0275
     18 C           5.0750   -1.2365   12.7890 C.3     1  UNL1       -0.0430
     19 H           5.2737   -0.3658   13.4157 H       1  UNL1        0.0275
     20 H           5.8633   -1.3190   12.0455 H       1  UNL1        0.0275
     21 H           5.1227   -2.1225   13.4269 H       1  UNL1        0.0275
     22 C           4.3739   -1.6497    9.6615 C.3     1  UNL1       -0.0545
     23 H           5.4103   -1.4356    9.9117 H       1  UNL1        0.0239
     24 H           4.1459   -1.1707    8.7103 H       1  UNL1        0.0239
     25 H           4.2799   -2.7311    9.5249 H       1  UNL1        0.0239
@<TRIPOS>BOND
     1     8     6    1
     2    24    22    1
     3     9     6    1
     4     6     7    1
     5     6     1    1
     6    25    22    1
     7    22    23    1
     8    22     5    1
     9     1     5    1
    10     1     2    1
    11     5     4    1
    12    11    10    1
    13     2    10    1
    14     2     3    1
    15    20    18    1
    16     4    18    1
    17     4     3    2
    18    13    10    1
    19    10    12    1
    20    18    19    1
    21    18    21    1
    22     3    14    1
    23    14    15    1
    24    14    16    1
    25    14    17    1
