@<TRIPOS>MOLECULE
1,2,3,4,5
 25 25 0 0 0
SMALL
GASTEIGER

@<TRIPOS>ATOM
      1 C           1.9840   -1.3479   10.6309 C.3     1  UNL1       -0.0053
      2 C           1.4252   -1.3050   11.9823 C.3     1  UNL1        0.0052
      3 C           2.5427   -1.2536   12.8873 C.2     1  UNL1       -0.0658
      4 C           3.7372   -1.2274   12.1556 C.2     1  UNL1       -0.0658
      5 C           3.4400   -1.2613   10.7479 C.3     1  UNL1        0.0052
      6 C           1.2536   -1.8785    9.4201 C.3     1  UNL1       -0.0574
      7 H           1.2667   -2.9718    9.4150 H       1  UNL1        0.0236
      8 H           1.7227   -1.5247    8.5027 H       1  UNL1        0.0236
      9 H           0.2159   -1.5462    9.4203 H       1  UNL1        0.0236
     10 C           0.0396   -1.7912   12.3179 C.3     1  UNL1       -0.0545
     11 H          -0.7055   -1.3308   11.6703 H       1  UNL1        0.0239
     12 H          -0.2249   -1.5730   13.3500 H       1  UNL1        0.0239
     13 H          -0.0168   -2.8746   12.1788 H       1  UNL1        0.0239
     14 C           2.4944   -1.3572   14.3853 C.3     1  UNL1       -0.0430
     15 H           3.0732   -2.2232   14.7143 H       1  UNL1        0.0275
     16 H           1.4744   -1.4829   14.7389 H       1  UNL1        0.0275
     17 H           2.9215   -0.4722   14.8604 H       1  UNL1        0.0275
     18 C           5.0961   -1.3065   12.7910 C.3     1  UNL1       -0.0430
     19 H           5.2799   -0.4525   13.4449 H       1  UNL1        0.0275
     20 H           5.8814   -1.3446   12.0406 H       1  UNL1        0.0275
     21 H           5.1677   -2.2115   13.3988 H       1  UNL1        0.0275
     22 C           4.3827   -1.6990    9.6575 C.3     1  UNL1       -0.0545
     23 H           5.4177   -1.4710    9.9033 H       1  UNL1        0.0239
     24 H           4.1415   -1.2158    8.7114 H       1  UNL1        0.0239
     25 H           4.3038   -2.7799    9.5120 H       1  UNL1        0.0239
@<TRIPOS>BOND
     1     8     6    1
     2    24    22    1
     3     7     6    1
     4     6     9    1
     5     6     1    1
     6    25    22    1
     7    22    23    1
     8    22     5    1
     9     1     5    1
    10     1     2    1
    11     5     4    1
    12    11    10    1
    13     2    10    1
    14     2     3    1
    15    20    18    1
    16     4    18    1
    17     4     3    2
    18    13    10    1
    19    10    12    1
    20    18    21    1
    21    18    19    1
    22     3    14    1
    23    14    15    1
    24    14    16    1
    25    14    17    1
