@<TRIPOS>MOLECULE
1,2,3,4,5
 25 25 0 0 0
SMALL
GASTEIGER

@<TRIPOS>ATOM
      1 C           1.0651    0.8232   13.1836 C.2     1  UNL1       -0.0584
      2 C          -0.1207    1.4281   12.6525 C.3     1  UNL1        0.0231
      3 C          -0.5002    0.6916   11.4974 C.2     1  UNL1       -0.0584
      4 C           0.4406   -0.3644   11.2902 C.2     1  UNL1       -0.0477
      5 C           1.4039   -0.3158   12.3434 C.2     1  UNL1       -0.0477
      6 C           1.5745    1.1047   14.5672 C.3     1  UNL1       -0.0424
      7 H           0.9022    0.6614   15.3055 H       1  UNL1        0.0275
      8 H           1.6139    2.1789   14.7419 H       1  UNL1        0.0275
      9 H           2.5685    0.6923   14.7244 H       1  UNL1        0.0275
     10 C          -0.9134    2.4794   13.3653 C.3     1  UNL1       -0.0510
     11 H          -1.8453    2.6931   12.8475 H       1  UNL1        0.0242
     12 H          -0.3405    3.4048   13.4447 H       1  UNL1        0.0242
     13 H          -1.1521    2.1431   14.3750 H       1  UNL1        0.0242
     14 C          -1.8157    0.7535   10.7863 C.3     1  UNL1       -0.0424
     15 H          -2.4846    0.0012   11.2128 H       1  UNL1        0.0275
     16 H          -1.6961    0.5338    9.7279 H       1  UNL1        0.0275
     17 H          -2.2910    1.7249   10.8959 H       1  UNL1        0.0275
     18 C           0.2301   -1.4881   10.3151 C.3     1  UNL1       -0.0395
     19 H          -0.6763   -2.0399   10.5741 H       1  UNL1        0.0278
     20 H           1.0646   -2.1841   10.3328 H       1  UNL1        0.0278
     21 H           0.1157   -1.1124    9.2979 H       1  UNL1        0.0278
     22 C           2.3453   -1.4255   12.7168 C.3     1  UNL1       -0.0395
     23 H           3.1549   -1.0613   13.3457 H       1  UNL1        0.0278
     24 H           2.7849   -1.8867   11.8339 H       1  UNL1        0.0278
     25 H           1.8076   -2.1977   13.2718 H       1  UNL1        0.0278
@<TRIPOS>BOND
     1    21    18    1
     2    16    14    1
     3    18    20    1
     4    18    19    1
     5    18     4    1
     6    14    17    1
     7    14    15    1
     8    14     3    1
     9     4     3    2
    10     4     5    1
    11     3     2    1
    12    24    22    1
    13     5    22    1
    14     5     1    2
    15     2     1    1
    16     2    10    1
    17    22    25    1
    18    22    23    1
    19    11    10    1
    20     1     6    1
    21    10    12    1
    22    10    13    1
    23     6     9    1
    24     6     8    1
    25     6     7    1
