@<TRIPOS>MOLECULE
1,2,3,4,5
 10 10 0 0 0
SMALL
GASTEIGER

@<TRIPOS>ATOM
      1 C          -1.8829   15.6435    1.5353 C.2     1  UNL1       -0.0763
      2 C          -1.6428   17.0028    1.8115 C.2     1  UNL1       -0.0654
      3 C          -1.7201   17.1888    3.2176 C.2     1  UNL1       -0.0654
      4 C          -2.0393   15.9292    3.8016 C.2     1  UNL1       -0.0763
      5 C          -2.1188   14.9762    2.7634 C.3     1  UNL1        0.0054
      6 H          -2.0050   15.2179    0.5472 H       1  UNL1        0.0578
      7 H          -1.5278   17.7889    1.0776 H       1  UNL1        0.0615
      8 H          -1.7374   18.1448    3.7277 H       1  UNL1        0.0615
      9 H          -2.3200   15.7717    4.8356 H       1  UNL1        0.0578
     10 H          -2.4558   13.9536    2.8668 H       1  UNL1        0.0394
@<TRIPOS>BOND
     1     6     1    1
     2     7     2    1
     3     1     2    2
     4     1     5    1
     5     2     3    1
     6     5    10    1
     7     5     4    1
     8     3     8    1
     9     3     4    2
    10     4     9    1
