@<TRIPOS>MOLECULE
1,2,3,4,5
 10 10 0 0 0
SMALL
GASTEIGER

@<TRIPOS>ATOM
      1 C           1.3608    6.2835   13.5553 C.3     1  UNL1       -0.0127
      2 C           1.2222    4.9323   13.1144 C.3     1  UNL1       -0.0235
      3 C          -0.0686    4.4909   13.4645 C.3     1  UNL1       -0.0127
      4 C          -0.7227    5.5571   14.1418 C.2     1  UNL1       -0.0837
      5 C           0.1628    6.6451   14.2196 C.2     1  UNL1       -0.0837
      6 H           2.2833    6.8509   13.5648 H       1  UNL1        0.0352
      7 H           2.0180    4.3209   12.7068 H       1  UNL1        0.0315
      8 H          -0.4289    3.4721   13.4134 H       1  UNL1        0.0352
      9 H          -1.6728    5.4749   14.6551 H       1  UNL1        0.0572
     10 H          -0.0055    7.5667   14.7591 H       1  UNL1        0.0572
@<TRIPOS>BOND
     1     7     2    1
     2     2     3    1
     3     2     1    1
     4     8     3    1
     5     3     4    1
     6     1     6    1
     7     1     5    1
     8     4     5    2
     9     4     9    1
    10     5    10    1
