@<TRIPOS>MOLECULE
1,2,3,4,5
 25 25 0 0 0
SMALL
GASTEIGER

@<TRIPOS>ATOM
      1 C           6.1864    1.5437    4.9453 C.2     1  UNL1       -0.0658
      2 C           5.1011    1.7961    4.0667 C.3     1  UNL1        0.0052
      3 C           5.5557    1.5697    2.7361 C.3     1  UNL1       -0.0053
      4 C           6.8929    1.0969    2.8070 C.3     1  UNL1        0.0052
      5 C           7.2989    1.1102    4.1670 C.2     1  UNL1       -0.0658
      6 C           8.5154    0.4081    4.6933 C.3     1  UNL1       -0.0430
      7 H           8.2777   -0.6472    4.8537 H       1  UNL1        0.0275
      8 H           8.8468    0.8344    5.6367 H       1  UNL1        0.0275
      9 H           9.3385    0.4621    3.9837 H       1  UNL1        0.0275
     10 C           6.0419    1.3628    6.4278 C.3     1  UNL1       -0.0430
     11 H           5.4937    2.1822    6.8908 H       1  UNL1        0.0275
     12 H           7.0117    1.2710    6.9095 H       1  UNL1        0.0275
     13 H           5.4829    0.4426    6.6221 H       1  UNL1        0.0275
     14 C           3.6724    1.7651    4.5261 C.3     1  UNL1       -0.0545
     15 H           2.9768    2.0255    3.7341 H       1  UNL1        0.0239
     16 H           3.4951    2.4100    5.3843 H       1  UNL1        0.0239
     17 H           3.4426    0.7425    4.8413 H       1  UNL1        0.0239
     18 C           4.7350    1.5879    1.4791 C.3     1  UNL1       -0.0574
     19 H           4.5315    0.5663    1.1485 H       1  UNL1        0.0236
     20 H           5.2713    2.1002    0.6776 H       1  UNL1        0.0236
     21 H           3.7793    2.0863    1.6320 H       1  UNL1        0.0236
     22 C           7.6427    0.4202    1.6987 C.3     1  UNL1       -0.0545
     23 H           8.7075    0.6472    1.7364 H       1  UNL1        0.0239
     24 H           7.2659    0.7218    0.7244 H       1  UNL1        0.0239
     25 H           7.5222   -0.6625    1.7971 H       1  UNL1        0.0239
@<TRIPOS>BOND
     1    20    18    1
     2    24    22    1
     3    19    18    1
     4    18    21    1
     5    18     3    1
     6    22    23    1
     7    22    25    1
     8    22     4    1
     9     3     4    1
    10     3     2    1
    11     4     5    1
    12    15    14    1
    13     9     6    1
    14     2    14    1
    15     2     1    1
    16     5     6    1
    17     5     1    2
    18    14    17    1
    19    14    16    1
    20     6     7    1
    21     6     8    1
    22     1    10    1
    23    10    13    1
    24    10    11    1
    25    10    12    1
