@<TRIPOS>MOLECULE
1,2,3,4,5
 25 25 0 0 0
SMALL
GASTEIGER

@<TRIPOS>ATOM
      1 C           5.6975    4.9906    4.7454 C.3     1  UNL1       -0.0053
      2 C           6.9491    5.5796    4.3929 C.3     1  UNL1        0.0052
      3 C           6.9729    5.7351    2.9824 C.2     1  UNL1       -0.0658
      4 C           5.7436    5.2555    2.4644 C.2     1  UNL1       -0.0658
      5 C           4.9388    4.8252    3.5486 C.3     1  UNL1        0.0052
      6 C           5.1479    4.9630    6.1432 C.3     1  UNL1       -0.0574
      7 H           5.9102    4.6786    6.8678 H       1  UNL1        0.0236
      8 H           4.3091    4.2758    6.2354 H       1  UNL1        0.0236
      9 H           4.7906    5.9605    6.4145 H       1  UNL1        0.0236
     10 C           7.8659    6.3007    5.3375 C.3     1  UNL1       -0.0545
     11 H           7.5976    7.3610    5.3428 H       1  UNL1        0.0239
     12 H           8.9085    6.2154    5.0374 H       1  UNL1        0.0239
     13 H           7.7731    5.9224    6.3506 H       1  UNL1        0.0239
     14 C           7.9936    6.4978    2.1946 C.3     1  UNL1       -0.0430
     15 H           8.2900    5.9510    1.2993 H       1  UNL1        0.0275
     16 H           8.8793    6.7008    2.7934 H       1  UNL1        0.0275
     17 H           7.5682    7.4532    1.8775 H       1  UNL1        0.0275
     18 C           5.2893    5.4131    1.0451 C.3     1  UNL1       -0.0430
     19 H           4.9594    6.4418    0.8761 H       1  UNL1        0.0275
     20 H           4.4571    4.7490    0.8187 H       1  UNL1        0.0275
     21 H           6.1028    5.2025    0.3523 H       1  UNL1        0.0275
     22 C           3.4430    4.7295    3.4505 C.3     1  UNL1       -0.0545
     23 H           3.0547    5.7237    3.2118 H       1  UNL1        0.0239
     24 H           2.9904    4.4181    4.3868 H       1  UNL1        0.0239
     25 H           3.1169    4.0594    2.6568 H       1  UNL1        0.0239
@<TRIPOS>BOND
     1    21    18    1
     2    20    18    1
     3    19    18    1
     4    18     4    1
     5    15    14    1
     6    17    14    1
     7    14    16    1
     8    14     3    1
     9     4     3    2
    10     4     5    1
    11    25    22    1
    12     3     2    1
    13    23    22    1
    14    22     5    1
    15    22    24    1
    16     5     1    1
    17     2     1    1
    18     2    10    1
    19     1     6    1
    20    12    10    1
    21    10    11    1
    22    10    13    1
    23     6     8    1
    24     6     9    1
    25     6     7    1
