@<TRIPOS>MOLECULE
2,3,5,7,9
 22 22 0 0 0
SMALL
GASTEIGER

@<TRIPOS>ATOM
      1 SI         20.4934    0.6179   -4.9678 Si      1  UNL1        0.0000
      2 C          19.9762    1.9017   -3.6875 C.2     1  UNL1        0.0000
      3 C          20.8528    2.7410   -2.9513 C.2     1  UNL1        0.0000
      4 H          21.9289    2.7733   -3.0709 H       1  UNL1        0.0000
      5 C          20.1180    3.3928   -1.9449 C.2     1  UNL1        0.0000
      6 H          20.5368    4.0085   -1.1570 H       1  UNL1        0.0000
      7 C          18.7799    2.9560   -2.0338 C.2     1  UNL1        0.0000
      8 H          17.9913    3.1801   -1.3252 H       1  UNL1        0.0000
      9 C          18.6865    2.0571   -3.1085 C.3     1  UNL1        0.0000
     10 H          17.8126    1.4733   -3.3727 H       1  UNL1        0.0000
     11 C          18.9613   -0.4344   -5.4131 C.3     1  UNL1        0.0000
     12 H          18.5750   -0.9697   -4.5510 H       1  UNL1        0.0000
     13 H          19.2048   -1.1725   -6.1703 H       1  UNL1        0.0000
     14 H          18.1689    0.1959   -5.8047 H       1  UNL1        0.0000
     15 C          21.8096   -0.5026   -4.1368 C.3     1  UNL1        0.0000
     16 H          21.4317   -0.9643   -3.2297 H       1  UNL1        0.0000
     17 H          22.6979    0.0620   -3.8712 H       1  UNL1        0.0000
     18 H          22.1170   -1.2989   -4.8066 H       1  UNL1        0.0000
     19 C          21.2419    1.4162   -6.5296 C.3     1  UNL1        0.0000
     20 H          20.5606    2.1536   -6.9465 H       1  UNL1        0.0000
     21 H          21.4523    0.6733   -7.2927 H       1  UNL1        0.0000
     22 H          22.1696    1.9298   -6.2967 H       1  UNL1        0.0000
@<TRIPOS>BOND
     1    21    19    1
     2    20    19    1
     3    19    22    1
     4    19     1    1
     5    13    11    1
     6    14    11    1
     7    11     1    1
     8    11    12    1
     9     1    15    1
    10     1     2    1
    11    18    15    1
    12    15    17    1
    13    15    16    1
    14     2     9    1
    15     2     3    2
    16    10     9    1
    17     9     7    1
    18     4     3    1
    19     3     5    1
    20     7     5    2
    21     7     8    1
    22     5     6    1
