@<TRIPOS>MOLECULE
1,3,5,7,9
 10 10 0 0 0
SMALL
GASTEIGER

@<TRIPOS>ATOM
      1 C          18.9169    6.3929   -4.7984 C.2     1  UNL1       -0.0763
      2 H          19.3471    6.8461   -5.6825 H       1  UNL1        0.0578
      3 C          17.6535    5.7769   -4.7183 C.2     1  UNL1       -0.0654
      4 H          16.9363    5.6973   -5.5254 H       1  UNL1        0.0615
      5 C          17.4290    5.4178   -3.3714 C.2     1  UNL1       -0.0654
      6 H          16.4976    5.0327   -2.9729 H       1  UNL1        0.0615
      7 C          18.5373    5.8506   -2.6177 C.2     1  UNL1       -0.0763
      8 H          18.6052    5.8543   -1.5376 H       1  UNL1        0.0578
      9 C          19.4703    6.4241   -3.4978 C.3     1  UNL1        0.0054
     10 H          20.3887    6.9260   -3.2179 H       1  UNL1        0.0394
@<TRIPOS>BOND
     1     2     1    1
     2     4     3    1
     3     1     3    2
     4     1     9    1
     5     3     5    1
     6     9    10    1
     7     9     7    1
     8     5     6    1
     9     5     7    2
    10     7     8    1
