@<TRIPOS>MOLECULE
1,3,5,7,9
 10 10 0 0 0
SMALL
GASTEIGER

@<TRIPOS>ATOM
      1 C          13.5294   -1.1695    3.7941 C.2     1  UNL1       -0.0763
      2 H          13.1295   -1.4408    4.7638 H       1  UNL1        0.0578
      3 C          14.8967   -1.0287    3.4769 C.3     1  UNL1        0.0054
      4 H          15.7154   -1.2083    4.1605 H       1  UNL1        0.0394
      5 C          15.0089   -0.8170    2.0789 C.2     1  UNL1       -0.0763
      6 H          15.9314   -0.8036    1.5085 H       1  UNL1        0.0578
      7 C          13.7051   -0.8735    1.5347 C.2     1  UNL1       -0.0654
      8 H          13.4670   -0.8944    0.4774 H       1  UNL1        0.0615
      9 C          12.7938   -1.0790    2.5908 C.2     1  UNL1       -0.0654
     10 H          11.7326   -1.2740    2.4865 H       1  UNL1        0.0615
@<TRIPOS>BOND
     1     8     7    1
     2     6     5    1
     3     7     5    2
     4     7     9    1
     5     5     3    1
     6    10     9    1
     7     9     1    2
     8     3     1    1
     9     3     4    1
    10     1     2    1
