@<TRIPOS>MOLECULE
1,3,5,7,9
 10 10 0 0 0
SMALL
GASTEIGER

@<TRIPOS>ATOM
      1 C          13.1703    2.1206    0.7363 C.2     1  UNL1       -0.0763
      2 H          13.5534    1.8138   -0.2307 H       1  UNL1        0.0578
      3 C          13.6374    3.2206    1.4871 C.3     1  UNL1        0.0054
      4 H          14.4190    3.9004    1.1744 H       1  UNL1        0.0394
      5 C          12.7774    3.4001    2.5900 C.2     1  UNL1       -0.0763
      6 H          12.8194    4.2159    3.3026 H       1  UNL1        0.0578
      7 C          11.7653    2.4146    2.5168 C.2     1  UNL1       -0.0654
      8 H          10.8751    2.3761    3.1296 H       1  UNL1        0.0615
      9 C          11.9987    1.6400    1.3605 C.2     1  UNL1       -0.0654
     10 H          11.3220    0.8995    0.9522 H       1  UNL1        0.0615
@<TRIPOS>BOND
     1     2     1    1
     2     1     9    2
     3     1     3    1
     4    10     9    1
     5     4     3    1
     6     9     7    1
     7     3     5    1
     8     7     5    2
     9     7     8    1
    10     5     6    1
