@<TRIPOS>MOLECULE
1,3,5,7,9
 10 10 0 0 0
SMALL
GASTEIGER

@<TRIPOS>ATOM
      1 C           8.5183   16.6384    5.0192 C.2     1  UNL1       -0.0763
      2 H           7.4886   16.7760    4.7140 H       1  UNL1        0.0578
      3 C           9.3846   17.6577    5.4633 C.3     1  UNL1        0.0054
      4 H           9.1312   18.7059    5.5477 H       1  UNL1        0.0394
      5 C          10.6849   17.1116    5.5553 C.2     1  UNL1       -0.0763
      6 H          11.5923   17.6638    5.7691 H       1  UNL1        0.0578
      7 C          10.6130   15.7550    5.1838 C.2     1  UNL1       -0.0654
      8 H          11.4587   15.1014    5.0139 H       1  UNL1        0.0615
      9 C           9.2684   15.4524    4.8745 C.2     1  UNL1       -0.0654
     10 H           8.9162   14.5259    4.4343 H       1  UNL1        0.0615
@<TRIPOS>BOND
     1    10     9    1
     2     2     1    1
     3     9     1    2
     4     9     7    1
     5     8     7    1
     6     1     3    1
     7     7     5    2
     8     3     4    1
     9     3     5    1
    10     5     6    1
