@<TRIPOS>MOLECULE
1,3,5,7,9
 10 10 0 0 0
SMALL
GASTEIGER

@<TRIPOS>ATOM
      1 C           6.7871   16.3938    7.5556 C.2     1  UNL1       -0.0763
      2 H           6.2280   17.1801    7.0625 H       1  UNL1        0.0578
      3 C           7.3206   16.4630    8.8603 C.3     1  UNL1        0.0054
      4 H           7.2448   17.3087    9.5322 H       1  UNL1        0.0394
      5 C           7.8176   15.1881    9.1953 C.2     1  UNL1       -0.0763
      6 H           8.1516   14.8871   10.1798 H       1  UNL1        0.0578
      7 C           7.6169   14.3306    8.0833 C.2     1  UNL1       -0.0654
      8 H           7.7158   13.2510    8.0844 H       1  UNL1        0.0615
      9 C           6.9586   15.0793    7.0807 C.2     1  UNL1       -0.0654
     10 H           6.5399   14.6706    6.1682 H       1  UNL1        0.0615
@<TRIPOS>BOND
     1    10     9    1
     2     2     1    1
     3     9     1    2
     4     9     7    1
     5     1     3    1
     6     7     8    1
     7     7     5    2
     8     3     5    1
     9     3     4    1
    10     5     6    1
