@<TRIPOS>MOLECULE
13,19,35,40
 54 56 0 0 0
SMALL
GASTEIGER

@<TRIPOS>ATOM
      1 P          -4.5408    1.3929    8.2520 P.3     1  UNL1       -0.0319
      2 C          -7.2838    1.9553    8.2947 C.ar    1  UNL1       -0.0538
      3 H          -7.1426    2.0629    9.3618 H       1  UNL1        0.0624
      4 C          -8.5419    2.0990    7.7406 C.ar    1  UNL1       -0.0612
      5 H          -9.3877    2.3235    8.3748 H       1  UNL1        0.0618
      6 C          -8.7201    1.9519    6.3743 C.ar    1  UNL1       -0.0617
      7 H          -9.7032    2.0665    5.9414 H       1  UNL1        0.0618
      8 C          -7.6362    1.6492    5.5667 C.ar    1  UNL1       -0.0612
      9 H          -7.7745    1.5225    4.5025 H       1  UNL1        0.0618
     10 C          -6.3761    1.5066    6.1187 C.ar    1  UNL1       -0.0538
     11 H          -5.5299    1.2646    5.4900 H       1  UNL1        0.0624
     12 C          -6.1844    1.6815    7.4855 C.ar    1  UNL1       -0.0181
     13 C          -3.4698    2.1026    6.9484 C.2     1  UNL1       -0.0321
     14 C          -2.2335    1.5731    6.5345 C.2     1  UNL1       -0.0538
     15 H          -1.8324    0.6278    6.8615 H       1  UNL1        0.0624
     16 C          -1.6726    2.4178    5.5660 C.2     1  UNL1       -0.0450
     17 C          -2.5413    3.5090    5.3942 C.2     1  UNL1       -0.0720
     18 H          -2.4511    4.2775    4.6406 H       1  UNL1        0.0581
     19 C          -3.6594    3.3529    6.2480 C.3     1  UNL1        0.0138
     20 H          -4.6181    3.8500    6.1166 H       1  UNL1        0.0401
     21 C          -0.4569    2.0744    4.7329 C.3     1  UNL1       -0.0129
     22 C          -0.9195    1.1698    3.5785 C.3     1  UNL1       -0.0561
     23 H          -1.4161    0.2846    3.9681 H       1  UNL1        0.0238
     24 H          -0.0700    0.8559    2.9749 H       1  UNL1        0.0238
     25 H          -1.6223    1.7008    2.9405 H       1  UNL1        0.0238
     26 C           0.5714    1.3190    5.5828 C.3     1  UNL1       -0.0561
     27 H           0.7569    1.8548    6.5099 H       1  UNL1        0.0238
     28 H           1.5082    1.2136    5.0385 H       1  UNL1        0.0238
     29 H           0.2116    0.3239    5.8288 H       1  UNL1        0.0238
     30 C           0.2066    3.3202    4.1384 C.3     1  UNL1       -0.0561
     31 H           0.5759    3.9755    4.9238 H       1  UNL1        0.0238
     32 H          -0.4905    3.8735    3.5141 H       1  UNL1        0.0238
     33 H           1.0505    3.0276    3.5160 H       1  UNL1        0.0238
     34 C          -4.4879    2.8775    9.3288 C.3     1  UNL1        0.0525
     35 C          -5.0371    4.1718    9.0837 C.2     1  UNL1       -0.0642
     36 H          -5.8702    4.3691    8.4187 H       1  UNL1        0.0588
     37 C          -4.5069    5.0695   10.0334 C.2     1  UNL1       -0.0449
     38 C          -3.5650    4.3537   10.8108 C.2     1  UNL1       -0.0610
     39 H          -3.0787    4.7303   11.7013 H       1  UNL1        0.0618
     40 C          -3.5419    3.0123   10.3829 C.2     1  UNL1       -0.0676
     41 H          -3.0468    2.1936   10.8890 H       1  UNL1        0.0585
     42 C          -5.0643    6.4294   10.4088 C.3     1  UNL1       -0.0129
     43 C          -6.0703    6.2105   11.5523 C.3     1  UNL1       -0.0561
     44 H          -5.5830    5.7478   12.4070 H       1  UNL1        0.0238
     45 H          -6.8762    5.5569   11.2261 H       1  UNL1        0.0238
     46 H          -6.4991    7.1592   11.8683 H       1  UNL1        0.0238
     47 C          -5.7839    7.0948    9.2337 C.3     1  UNL1       -0.0561
     48 H          -5.0863    7.2637    8.4183 H       1  UNL1        0.0238
     49 H          -6.1898    8.0553    9.5460 H       1  UNL1        0.0238
     50 H          -6.6115    6.4847    8.8803 H       1  UNL1        0.0238
     51 C          -3.9498    7.3673   10.8833 C.3     1  UNL1       -0.0561
     52 H          -3.2081    7.4811   10.0973 H       1  UNL1        0.0238
     53 H          -3.4635    6.9850   11.7769 H       1  UNL1        0.0238
     54 H          -4.3628    8.3459   11.1206 H       1  UNL1        0.0238
@<TRIPOS>BOND
     1    25    22    1
     2    24    22    1
     3    32    30    1
     4    33    30    1
     5    22    23    1
     6    22    21    1
     7    30    21    1
     8    30    31    1
     9     9     8    1
    10    18    17    1
    11    21    16    1
    12    21    26    1
    13    28    26    1
    14    17    16    2
    15    17    19    1
    16    11    10    1
    17    16    14    1
    18     8    10   ar
    19     8     6   ar
    20    26    29    1
    21    26    27    1
    22     7     6    1
    23    20    19    1
    24    10    12   ar
    25    19    13    1
    26     6     4   ar
    27    14    15    1
    28    14    13    2
    29    13     1    1
    30    12     1    1
    31    12     2   ar
    32     4     2   ar
    33     4     5    1
    34     1    34    1
    35     2     3    1
    36    48    47    1
    37    36    35    1
    38    50    47    1
    39    35    34    1
    40    35    37    2
    41    47    49    1
    42    47    42    1
    43    34    40    1
    44    37    42    1
    45    37    38    1
    46    52    51    1
    47    40    38    2
    48    40    41    1
    49    42    51    1
    50    42    43    1
    51    38    39    1
    52    51    54    1
    53    51    53    1
    54    45    43    1
    55    43    46    1
    56    43    44    1
