@<TRIPOS>MOLECULE
1,2,3,4,5
 10 10 0 0 0
SMALL
GASTEIGER

@<TRIPOS>ATOM
      1 C           1.7418    2.2023   14.5624 C.2     1  UNL1       -0.0654
      2 C           1.9847    3.6071   14.5715 C.2     1  UNL1       -0.0654
      3 C           1.8711    4.0775   13.2547 C.2     1  UNL1       -0.0763
      4 C           1.5490    2.9661   12.4261 C.3     1  UNL1        0.0054
      5 C           1.5318    1.8014   13.2320 C.2     1  UNL1       -0.0763
      6 H           1.9116    1.5373   15.3923 H       1  UNL1        0.0615
      7 H           2.3006    4.1821   15.4261 H       1  UNL1        0.0615
      8 H           2.0790    5.0765   12.9131 H       1  UNL1        0.0578
      9 H           1.5066    2.9835   11.3497 H       1  UNL1        0.0394
     10 H           1.4531    0.7893   12.8794 H       1  UNL1        0.0578
@<TRIPOS>BOND
     1     9     4    1
     2     4     5    1
     3     4     3    1
     4    10     5    1
     5     8     3    1
     6     5     1    2
     7     3     2    2
     8     1     2    1
     9     1     6    1
    10     2     7    1
