@<TRIPOS>MOLECULE
1,2,3,4,5
 10 10 0 0 0
SMALL
GASTEIGER

@<TRIPOS>ATOM
      1 C           1.3990    2.3835    6.8917 C.3     1  UNL1        0.0054
      2 C           2.6219    2.5173    6.1853 C.2     1  UNL1       -0.0763
      3 C           1.0184    1.0226    6.8445 C.2     1  UNL1       -0.0763
      4 C           2.9941    1.2371    5.7095 C.2     1  UNL1       -0.0654
      5 C           2.0000    0.3184    6.1088 C.2     1  UNL1       -0.0654
      6 H           0.9286    3.1532    7.4895 H       1  UNL1        0.0394
      7 H           3.2608    3.3917    6.2027 H       1  UNL1        0.0578
      8 H           0.1918    0.5771    7.3815 H       1  UNL1        0.0578
      9 H           3.9434    0.9791    5.2585 H       1  UNL1        0.0615
     10 H           2.0463   -0.7555    5.9847 H       1  UNL1        0.0615
@<TRIPOS>BOND
     1     9     4    1
     2     4     5    1
     3     4     2    2
     4    10     5    1
     5     5     3    2
     6     2     7    1
     7     2     1    1
     8     3     1    1
     9     3     8    1
    10     1     6    1
