@<TRIPOS>MOLECULE
1,2,3,4,5
 25 25 0 0 0
SMALL
GASTEIGER

@<TRIPOS>ATOM
      1 C           3.3744    1.4921    5.5525 C.3     1  UNL1       -0.0053
      2 C           4.2257    0.3813    5.2534 C.3     1  UNL1        0.0052
      3 C           5.5612    0.8226    5.3288 C.2     1  UNL1       -0.0658
      4 C           5.5638    2.1800    5.7432 C.2     1  UNL1       -0.0658
      5 C           4.2136    2.5911    5.9264 C.3     1  UNL1        0.0052
      6 C           1.8994    1.4444    5.8482 C.3     1  UNL1       -0.0574
      7 H           1.7361    1.4679    6.9290 H       1  UNL1        0.0236
      8 H           1.4414    0.5332    5.4679 H       1  UNL1        0.0236
      9 H           1.3909    2.3039    5.4096 H       1  UNL1        0.0236
     10 C           3.8239   -1.0647    5.2817 C.3     1  UNL1       -0.0545
     11 H           4.3421   -1.6619    4.5341 H       1  UNL1        0.0239
     12 H           2.7535   -1.1956    5.1559 H       1  UNL1        0.0239
     13 H           4.0926   -1.4730    6.2596 H       1  UNL1        0.0239
     14 C           6.7858   -0.0375    5.2409 C.3     1  UNL1       -0.0430
     15 H           6.5642   -0.9971    4.7819 H       1  UNL1        0.0275
     16 H           7.1751   -0.2254    6.2441 H       1  UNL1        0.0275
     17 H           7.5719    0.4515    4.6685 H       1  UNL1        0.0275
     18 C           6.7587    2.9352    6.2449 C.3     1  UNL1       -0.0430
     19 H           6.6319    4.0094    6.1141 H       1  UNL1        0.0275
     20 H           7.6692    2.6248    5.7375 H       1  UNL1        0.0275
     21 H           6.8864    2.7389    7.3128 H       1  UNL1        0.0275
     22 C           3.8101    3.7489    6.7881 C.3     1  UNL1       -0.0545
     23 H           2.7584    3.9864    6.6632 H       1  UNL1        0.0239
     24 H           4.3989    4.6329    6.5568 H       1  UNL1        0.0239
     25 H           3.9833    3.4870    7.8364 H       1  UNL1        0.0239
@<TRIPOS>BOND
     1    11    10    1
     2    17    14    1
     3    15    14    1
     4    12    10    1
     5    14     3    1
     6    14    16    1
     7     2    10    1
     8     2     3    1
     9     2     1    1
    10    10    13    1
    11     3     4    2
    12     9     6    1
    13     8     6    1
    14     1     6    1
    15     1     5    1
    16    20    18    1
    17     4     5    1
    18     4    18    1
    19     6     7    1
    20     5    22    1
    21    19    18    1
    22    18    21    1
    23    24    22    1
    24    23    22    1
    25    22    25    1
