@<TRIPOS>MOLECULE
1,2,3,4,5
 25 25 0 0 0
SMALL
GASTEIGER

@<TRIPOS>ATOM
      1 C           2.6575    2.1713    1.9130 C.2     1  UNL1       -0.0584
      2 C           3.1776    0.9060    2.3386 C.3     1  UNL1        0.0231
      3 C           4.5592    0.8720    1.9984 C.2     1  UNL1       -0.0584
      4 C           4.8799    2.0985    1.3591 C.2     1  UNL1       -0.0477
      5 C           3.7013    2.8920    1.2946 C.2     1  UNL1       -0.0477
      6 C           1.2002    2.5236    1.9088 C.3     1  UNL1       -0.0424
      7 H           1.0604    3.5996    1.9730 H       1  UNL1        0.0275
      8 H           0.6835    2.0564    2.7464 H       1  UNL1        0.0275
      9 H           0.7336    2.1682    0.9853 H       1  UNL1        0.0275
     10 C           2.2807   -0.2825    2.5492 C.3     1  UNL1       -0.0510
     11 H           1.5535   -0.1240    3.3439 H       1  UNL1        0.0242
     12 H           2.8485   -1.1828    2.7614 H       1  UNL1        0.0242
     13 H           1.7191   -0.4564    1.6269 H       1  UNL1        0.0242
     14 C           5.4724   -0.3201    1.9875 C.3     1  UNL1       -0.0424
     15 H           5.5935   -0.6757    0.9611 H       1  UNL1        0.0275
     16 H           5.0731   -1.1394    2.5786 H       1  UNL1        0.0275
     17 H           6.4596   -0.0635    2.3699 H       1  UNL1        0.0275
     18 C           6.1240    2.3687    0.5640 C.3     1  UNL1       -0.0395
     19 H           5.9511    2.0795   -0.4765 H       1  UNL1        0.0278
     20 H           6.9690    1.7934    0.9341 H       1  UNL1        0.0278
     21 H           6.3885    3.4250    0.5781 H       1  UNL1        0.0278
     22 C           3.6075    4.1816    0.5403 C.3     1  UNL1       -0.0395
     23 H           4.1233    4.0854   -0.4159 H       1  UNL1        0.0278
     24 H           4.0678    4.9974    1.0972 H       1  UNL1        0.0278
     25 H           2.5707    4.4390    0.3441 H       1  UNL1        0.0278
@<TRIPOS>BOND
     1    19    18    1
     2    23    22    1
     3    25    22    1
     4    22    24    1
     5    22     5    1
     6    18    21    1
     7    18    20    1
     8    18     4    1
     9    15    14    1
    10     9     6    1
    11     5     4    1
    12     5     1    2
    13     4     3    2
    14    13    10    1
    15     6     1    1
    16     6     7    1
    17     6     8    1
    18     1     2    1
    19    14     3    1
    20    14    17    1
    21    14    16    1
    22     3     2    1
    23     2    10    1
    24    10    12    1
    25    10    11    1
