@<TRIPOS>MOLECULE
1,3,5,7,9
 10 10 0 0 0
SMALL
GASTEIGER

@<TRIPOS>ATOM
      1 C           5.4570    6.3280   -0.4010 C.2     1  UNL1       -0.0763
      2 H           5.5527    5.2725   -0.1764 H       1  UNL1        0.0578
      3 C           5.5000    6.8963   -1.6923 C.2     1  UNL1       -0.0654
      4 H           5.6306    6.3473   -2.6172 H       1  UNL1        0.0615
      5 C           5.4890    8.3000   -1.5533 C.2     1  UNL1       -0.0654
      6 H           5.6789    9.0101   -2.3505 H       1  UNL1        0.0615
      7 C           5.4663    8.5962   -0.1747 C.2     1  UNL1       -0.0763
      8 H           5.6357    9.5649    0.2673 H       1  UNL1        0.0578
      9 C           5.4180    7.3778    0.5365 C.3     1  UNL1        0.0054
     10 H           5.5030    7.2805    1.6122 H       1  UNL1        0.0394
@<TRIPOS>BOND
     1     4     3    1
     2     6     5    1
     3     3     5    1
     4     3     1    2
     5     5     7    2
     6     1     2    1
     7     1     9    1
     8     7     8    1
     9     7     9    1
    10     9    10    1
