@<TRIPOS>MOLECULE
1,3,5,7,9
 10 10 0 0 0
SMALL
GASTEIGER

@<TRIPOS>ATOM
      1 C           0.7956    8.2291   -1.4476 C.2     1  UNL1       -0.0654
      2 H          -0.0551    8.2256   -0.7774 H       1  UNL1        0.0615
      3 C           1.1289    7.2148   -2.3625 C.2     1  UNL1       -0.0654
      4 H           0.5855    6.2898   -2.5048 H       1  UNL1        0.0615
      5 C           2.2160    7.6650   -3.1396 C.2     1  UNL1       -0.0763
      6 H           2.6375    7.1502   -3.9953 H       1  UNL1        0.0578
      7 C           2.5458    8.9724   -2.7153 C.3     1  UNL1        0.0054
      8 H           3.2115    9.6505   -3.2379 H       1  UNL1        0.0394
      9 C           1.6542    9.3256   -1.6782 C.2     1  UNL1       -0.0763
     10 H           1.5332   10.3102   -1.2531 H       1  UNL1        0.0578
@<TRIPOS>BOND
     1     6     5    1
     2     8     7    1
     3     5     7    1
     4     5     3    2
     5     7     9    1
     6     4     3    1
     7     3     1    1
     8     9     1    2
     9     9    10    1
    10     1     2    1
