@<TRIPOS>MOLECULE
1,2,3,4,5
 10 10 0 0 0
SMALL
GASTEIGER

@<TRIPOS>ATOM
      1 C           6.6189    8.5547    9.3925 C.2     1  UNL1       -0.0763
      2 C           5.5720    7.8781   10.0373 C.3     1  UNL1        0.0054
      3 C           7.5482    7.1129   10.9167 C.2     1  UNL1       -0.0654
      4 C           7.8450    8.0818    9.9288 C.2     1  UNL1       -0.0654
      5 C           6.1352    6.9585   10.9668 C.2     1  UNL1       -0.0763
      6 H           6.5127    9.3723    8.6915 H       1  UNL1        0.0578
      7 H           4.5152    8.0940    9.9356 H       1  UNL1        0.0394
      8 H           5.5836    6.4276   11.7341 H       1  UNL1        0.0578
      9 H           8.2582    6.6652   11.5992 H       1  UNL1        0.0615
     10 H           8.8231    8.4973    9.7233 H       1  UNL1        0.0615
@<TRIPOS>BOND
     1     6     1    1
     2     1     4    2
     3     1     2    1
     4    10     4    1
     5     4     3    1
     6     7     2    1
     7     2     5    1
     8     3     5    2
     9     3     9    1
    10     5     8    1
