@<TRIPOS>MOLECULE
1,2,3,4,5
 25 25 0 0 0
SMALL
GASTEIGER

@<TRIPOS>ATOM
      1 C           1.1449   12.2276    2.9727 C.2     1  UNL1       -0.0477
      2 C           1.0888   13.5602    2.4600 C.2     1  UNL1       -0.0584
      3 C           2.2499   13.7759    1.6676 C.3     1  UNL1        0.0231
      4 C           3.0088   12.5782    1.6635 C.2     1  UNL1       -0.0584
      5 C           2.3428   11.6281    2.4852 C.2     1  UNL1       -0.0477
      6 C           0.0075   11.4737    3.6026 C.3     1  UNL1       -0.0395
      7 H          -0.6426   12.1284    4.1778 H       1  UNL1        0.0278
      8 H           0.3635   10.6852    4.2644 H       1  UNL1        0.0278
      9 H          -0.5942   11.0070    2.8178 H       1  UNL1        0.0278
     10 C          -0.0727   14.5095    2.5241 C.3     1  UNL1       -0.0424
     11 H           0.2381   15.4891    2.8917 H       1  UNL1        0.0275
     12 H          -0.8593   14.1299    3.1713 H       1  UNL1        0.0275
     13 H          -0.4896   14.6416    1.5231 H       1  UNL1        0.0275
     14 C           2.5619   15.0142    0.8796 C.3     1  UNL1       -0.0510
     15 H           2.2665   14.8839   -0.1644 H       1  UNL1        0.0242
     16 H           3.6312   15.2300    0.9079 H       1  UNL1        0.0242
     17 H           2.0285   15.8732    1.2838 H       1  UNL1        0.0242
     18 C           4.1836   12.2743    0.7848 C.3     1  UNL1       -0.0424
     19 H           4.9086   11.6406    1.2942 H       1  UNL1        0.0275
     20 H           4.6874   13.1865    0.4741 H       1  UNL1        0.0275
     21 H           3.8405   11.7482   -0.1100 H       1  UNL1        0.0275
     22 C           2.6881   10.1669    2.5105 C.3     1  UNL1       -0.0395
     23 H           2.4938    9.7357    1.5250 H       1  UNL1        0.0278
     24 H           2.0859    9.6271    3.2371 H       1  UNL1        0.0278
     25 H           3.7434   10.0062    2.7345 H       1  UNL1        0.0278
@<TRIPOS>BOND
     1    15    14    1
     2    21    18    1
     3    20    18    1
     4    18    19    1
     5    18     4    1
     6    14    16    1
     7    14    17    1
     8    14     3    1
     9    13    10    1
    10    23    22    1
    11     4     3    1
    12     4     5    2
    13     3     2    1
    14     2    10    1
    15     2     1    2
    16     5    22    1
    17     5     1    1
    18    22    25    1
    19    22    24    1
    20    10    11    1
    21    10    12    1
    22     9     6    1
    23     1     6    1
    24     6     7    1
    25     6     8    1
