@<TRIPOS>MOLECULE
1,3,4,6,7
 34 34 0 0 0
SMALL
GASTEIGER

@<TRIPOS>ATOM
      1 C           0.3026    7.1920   10.9587 C.2     1  UNL1        0.0000
      2 H           0.5251    7.5978    9.9813 H       1  UNL1        0.0000
      3 C          -0.8748    6.4575   11.2975 C.3     1  UNL1        0.0000
      4 C          -0.8537    6.2982   12.7106 C.3     1  UNL1        0.0000
      5 H          -1.6657    5.8947   13.3020 H       1  UNL1        0.0000
      6 C           0.3125    6.9098   13.2402 C.3     1  UNL1        0.0000
      7 C           1.0064    7.4777   12.1362 C.2     1  UNL1        0.0000
      8 H           1.8750    8.1150   12.2119 H       1  UNL1        0.0000
      9 SI         -2.3580    6.1338   10.1817 Si      1  UNL1        0.0000
     10 C          -1.9291    4.9601    8.7155 C.3     1  UNL1        0.0000
     11 H          -1.5192    4.0071    9.0411 H       1  UNL1        0.0000
     12 H          -1.2549    5.4280    8.0004 H       1  UNL1        0.0000
     13 H          -2.8360    4.7346    8.1621 H       1  UNL1        0.0000
     14 C          -2.9124    7.7927    9.4316 C.3     1  UNL1        0.0000
     15 H          -3.7896    7.6604    8.8077 H       1  UNL1        0.0000
     16 H          -2.1381    8.2399    8.8163 H       1  UNL1        0.0000
     17 H          -3.1655    8.5104   10.2050 H       1  UNL1        0.0000
     18 C          -3.7543    5.3505   11.2163 C.3     1  UNL1        0.0000
     19 H          -4.5798    5.0417   10.5833 H       1  UNL1        0.0000
     20 H          -4.1487    6.0630   11.9339 H       1  UNL1        0.0000
     21 H          -3.4174    4.4789   11.7686 H       1  UNL1        0.0000
     22 SI          0.7351    7.1730   15.0597 Si      1  UNL1        0.0000
     23 C           0.5783    9.0275   15.4596 C.3     1  UNL1        0.0000
     24 H           0.8163    9.2172   16.5007 H       1  UNL1        0.0000
     25 H          -0.4299    9.3878   15.2832 H       1  UNL1        0.0000
     26 H           1.2492    9.6293   14.8550 H       1  UNL1        0.0000
     27 C          -0.4956    6.1706   16.1236 C.3     1  UNL1        0.0000
     28 H          -0.1650    6.1208   17.1558 H       1  UNL1        0.0000
     29 H          -0.6183    5.1528   15.7654 H       1  UNL1        0.0000
     30 H          -1.4741    6.6405   16.1236 H       1  UNL1        0.0000
     31 C           2.5402    6.6143   15.3724 C.3     1  UNL1        0.0000
     32 H           2.7460    5.6519   14.9100 H       1  UNL1        0.0000
     33 H           2.7485    6.5291   16.4344 H       1  UNL1        0.0000
     34 H           3.2412    7.3369   14.9661 H       1  UNL1        0.0000
@<TRIPOS>BOND
     1    12    10    1
     2    13    10    1
     3    10    11    1
     4    10     9    1
     5    15    14    1
     6    16    14    1
     7    14     9    1
     8    14    17    1
     9     2     1    1
    10     9    18    1
    11     9     3    1
    12    19    18    1
    13     1     3    1
    14     1     7    2
    15    18    21    1
    16    18    20    1
    17     3     4    1
    18     7     8    1
    19     7     6    1
    20     4     6    1
    21     4     5    1
    22     6    22    1
    23    26    23    1
    24    32    31    1
    25    34    31    1
    26    22    31    1
    27    22    23    1
    28    22    27    1
    29    25    23    1
    30    31    33    1
    31    23    24    1
    32    29    27    1
    33    27    30    1
    34    27    28    1
