@<TRIPOS>MOLECULE
2,3,5,7,9
 28 29 0 0 0
SMALL
GASTEIGER

@<TRIPOS>ATOM
      1 SI          2.5682    6.4240   -0.9749 Si      1  UNL1        0.0000
      2 C           1.8687    8.0418   -0.3174 C.2     1  UNL1        0.0000
      3 C           2.3264    8.7496    0.8205 C.3     1  UNL1        0.0000
      4 H           3.0451    8.3902    1.5403 H       1  UNL1        0.0000
      5 C           1.7271   10.0313    0.8061 C.2     1  UNL1        0.0000
      6 H           1.9869   10.8441    1.4722 H       1  UNL1        0.0000
      7 C           1.0489   10.1954   -0.4501 C.2     1  UNL1        0.0000
      8 H           0.6520   11.1218   -0.8373 H       1  UNL1        0.0000
      9 C           1.1112    8.9776   -1.1145 C.2     1  UNL1        0.0000
     10 H           0.7619    8.7733   -2.1148 H       1  UNL1        0.0000
     11 C           3.5027    6.8296   -2.5897 C.3     1  UNL1        0.0000
     12 H           2.8074    7.0276   -3.3996 H       1  UNL1        0.0000
     13 H           4.1287    5.9977   -2.8959 H       1  UNL1        0.0000
     14 H           4.1381    7.7027   -2.4759 H       1  UNL1        0.0000
     15 C           3.7620    5.6459    0.2954 C.3     1  UNL1        0.0000
     16 H           4.2411    4.7647   -0.1190 H       1  UNL1        0.0000
     17 H           3.2477    5.3439    1.2022 H       1  UNL1        0.0000
     18 H           4.5458    6.3439    0.5709 H       1  UNL1        0.0000
     19 C           1.2094    5.0922   -1.3734 C.3     1  UNL1        0.0000
     20 H           0.8225    4.7260   -0.4263 H       1  UNL1        0.0000
     21 C           1.8321    4.0642   -2.2292 C.2     1  UNL1        0.0000
     22 H           2.5919    3.3871   -1.8834 H       1  UNL1        0.0000
     23 C           1.3270    4.1551   -3.4743 C.2     1  UNL1        0.0000
     24 H           1.6088    3.5648   -4.3292 H       1  UNL1        0.0000
     25 C           0.3125    5.1710   -3.4932 C.2     1  UNL1        0.0000
     26 H          -0.2627    5.4365   -4.3638 H       1  UNL1        0.0000
     27 C           0.1996    5.6999   -2.2600 C.2     1  UNL1        0.0000
     28 H          -0.4888    6.4573   -1.9343 H       1  UNL1        0.0000
@<TRIPOS>BOND
     1    26    25    1
     2    24    23    1
     3    25    23    1
     4    25    27    2
     5    23    21    2
     6    12    11    1
     7    13    11    1
     8    11    14    1
     9    11     1    1
    10    27    28    1
    11    27    19    1
    12    21    22    1
    13    21    19    1
    14    10     9    1
    15    19     1    1
    16    19    20    1
    17     9     7    1
    18     9     2    2
    19     1     2    1
    20     1    15    1
    21     8     7    1
    22     7     5    2
    23     2     3    1
    24    16    15    1
    25    15    18    1
    26    15    17    1
    27     5     3    1
    28     5     6    1
    29     3     4    1
