@<TRIPOS>MOLECULE
2,3,4,6,7
 47 48 0 0 0
SMALL
GASTEIGER

@<TRIPOS>ATOM
      1 SI          9.2376    0.1247   12.9327 Si      1  UNL1        0.0000
      2 C          10.7119    2.9353    8.6605 C.3     1  UNL1        0.0000
      3 C          11.5514    1.9294    9.1467 C.3     1  UNL1        0.0000
      4 C          11.4617    1.5633   10.5237 C.3     1  UNL1        0.0000
      5 H          11.9928    0.6826   10.8732 H       1  UNL1        0.0000
      6 C          10.4910    2.1648   11.3785 C.3     1  UNL1        0.0000
      7 C           9.7151    3.2123   10.8537 C.3     1  UNL1        0.0000
      8 C           9.3840    3.1537    9.3630 C.3     1  UNL1        0.0000
      9 H           8.9681    4.1213    9.0556 H       1  UNL1        0.0000
     10 C          10.7560    3.3498    7.2144 C.3     1  UNL1        0.0000
     11 H          11.7760    3.4509    6.8503 H       1  UNL1        0.0000
     12 H          10.2481    4.3025    7.0747 H       1  UNL1        0.0000
     13 H          10.2423    2.6041    6.6012 H       1  UNL1        0.0000
     14 C           8.7103    3.9502   11.7021 C.3     1  UNL1        0.0000
     15 H           7.8184    3.3396   11.8526 H       1  UNL1        0.0000
     16 H           8.4094    4.8742   11.2101 H       1  UNL1        0.0000
     17 H           9.1190    4.2115   12.6763 H       1  UNL1        0.0000
     18 C          12.5448    1.2241    8.2576 C.3     1  UNL1        0.0000
     19 H          12.0077    0.6643    7.4892 H       1  UNL1        0.0000
     20 H          13.1549    0.5303    8.8329 H       1  UNL1        0.0000
     21 H          13.2104    1.9206    7.7506 H       1  UNL1        0.0000
     22 C          10.3863    1.6707   12.7857 C.3     1  UNL1        0.0000
     23 H          10.0143    2.4484   13.4502 H       1  UNL1        0.0000
     24 H          11.3741    1.3858   13.1537 H       1  UNL1        0.0000
     25 C           9.3417   -0.4406   14.7497 C.3     1  UNL1        0.0000
     26 H           9.0092    0.3379   15.4295 H       1  UNL1        0.0000
     27 H          10.3559   -0.7076   15.0305 H       1  UNL1        0.0000
     28 H           8.7160   -1.3109   14.9197 H       1  UNL1        0.0000
     29 C           7.4344    0.5488   12.4879 C.3     1  UNL1        0.0000
     30 H           7.3382    0.8895   11.4617 H       1  UNL1        0.0000
     31 H           7.0316    1.3201   13.1380 H       1  UNL1        0.0000
     32 H           6.8021   -0.3274   12.5966 H       1  UNL1        0.0000
     33 C           9.8601   -1.2664   11.7860 C.3     1  UNL1        0.0000
     34 H           9.2679   -2.1664   11.9225 H       1  UNL1        0.0000
     35 H          10.8950   -1.5267   11.9902 H       1  UNL1        0.0000
     36 H           9.7848   -0.9858   10.7400 H       1  UNL1        0.0000
     37 C           8.3283    2.1026    9.0709 C.ar    1  UNL1        0.0000
     38 C           8.6444    0.7807    8.7863 C.ar    1  UNL1        0.0000
     39 H           9.6776    0.4742    8.7136 H       1  UNL1        0.0000
     40 C           7.6472   -0.1566    8.5790 C.ar    1  UNL1        0.0000
     41 H           7.9131   -1.1800    8.3565 H       1  UNL1        0.0000
     42 C           6.3162    0.2124    8.6548 C.ar    1  UNL1        0.0000
     43 H           5.5390   -0.5200    8.4958 H       1  UNL1        0.0000
     44 C           5.9883    1.5294    8.9295 C.ar    1  UNL1        0.0000
     45 H           4.9521    1.8297    8.9842 H       1  UNL1        0.0000
     46 C           6.9863    2.4649    9.1323 C.ar    1  UNL1        0.0000
     47 H           6.7209    3.4920    9.3396 H       1  UNL1        0.0000
@<TRIPOS>BOND
     1    13    10    1
     2    11    10    1
     3    12    10    1
     4    10     2    1
     5    19    18    1
     6    21    18    1
     7    18    20    1
     8    18     3    1
     9    41    40    1
    10    43    42    1
    11    40    42   ar
    12    40    38   ar
    13    42    44   ar
    14     2     3    1
    15     2     8    1
    16    39    38    1
    17    38    37   ar
    18    44    45    1
    19    44    46   ar
    20     9     8    1
    21    37    46   ar
    22    37     8    1
    23    46    47    1
    24     3     4    1
    25     8     7    1
    26     4     5    1
    27     4     6    1
    28    36    33    1
    29     7     6    1
    30     7    14    1
    31    16    14    1
    32     6    22    1
    33    30    29    1
    34    14    15    1
    35    14    17    1
    36    33    34    1
    37    33    35    1
    38    33     1    1
    39    29    32    1
    40    29     1    1
    41    29    31    1
    42    22     1    1
    43    22    24    1
    44    22    23    1
    45     1    25    1
    46    25    28    1
    47    25    27    1
    48    25    26    1
