@<TRIPOS>MOLECULE
1,2,3,4,5
 25 25 0 0 0
SMALL
GASTEIGER

@<TRIPOS>ATOM
      1 C          -2.2865    2.2856    8.0325 C.3     1  UNL1        0.0231
      2 C          -2.0779    3.6827    7.8614 C.2     1  UNL1       -0.0584
      3 C          -0.8397    4.0270    8.4877 C.2     1  UNL1       -0.0477
      4 C          -0.2911    2.8433    9.0648 C.2     1  UNL1       -0.0477
      5 C          -1.1761    1.7642    8.7674 C.2     1  UNL1       -0.0584
      6 C          -3.5477    1.5465    7.6990 C.3     1  UNL1       -0.0510
      7 C          -3.1123    4.6610    7.3890 C.3     1  UNL1       -0.0424
      8 C          -0.3968    5.4415    8.7424 C.3     1  UNL1       -0.0395
      9 C           0.7979    2.7521   10.0977 C.3     1  UNL1       -0.0395
     10 C          -1.0700    0.3848    9.3485 C.3     1  UNL1       -0.0424
     11 H          -4.0197    1.9621    6.8101 H       1  UNL1        0.0242
     12 H          -3.3495    0.4916    7.5149 H       1  UNL1        0.0242
     13 H          -4.2580    1.6204    8.5265 H       1  UNL1        0.0242
     14 H          -2.6619    5.6171    7.1300 H       1  UNL1        0.0275
     15 H          -3.6515    4.2835    6.5208 H       1  UNL1        0.0275
     16 H          -3.8428    4.8358    8.1837 H       1  UNL1        0.0275
     17 H           0.5661    5.4767    9.2494 H       1  UNL1        0.0278
     18 H          -0.3125    6.0116    7.8157 H       1  UNL1        0.0278
     19 H          -1.1274    5.9437    9.3803 H       1  UNL1        0.0278
     20 H           0.3467    2.5876   11.0795 H       1  UNL1        0.0278
     21 H           1.4710    1.9188    9.9011 H       1  UNL1        0.0278
     22 H           1.3871    3.6654   10.1565 H       1  UNL1        0.0278
     23 H          -1.5983   -0.3422    8.7340 H       1  UNL1        0.0275
     24 H          -0.0296    0.0716    9.4260 H       1  UNL1        0.0275
     25 H          -1.5078    0.3648   10.3499 H       1  UNL1        0.0275
@<TRIPOS>BOND
     1    15     7    1
     2    11     6    1
     3    14     7    1
     4     7     2    1
     5     7    16    1
     6    12     6    1
     7     6     1    1
     8     6    13    1
     9    18     8    1
    10     2     1    1
    11     2     3    2
    12     1     5    1
    13     3     8    1
    14     3     4    1
    15    23    10    1
    16     8    17    1
    17     8    19    1
    18     5     4    2
    19     5    10    1
    20     4     9    1
    21    10    24    1
    22    10    25    1
    23    21     9    1
    24     9    22    1
    25     9    20    1
