@<TRIPOS>MOLECULE
1,2,3,4,5
 10 10 0 0 0
SMALL
GASTEIGER

@<TRIPOS>ATOM
      1 C           4.9552    4.4946    9.1149 C.2     1  UNL1       -0.0763
      2 C           4.9230    5.5256   10.0789 C.3     1  UNL1        0.0054
      3 C           3.9772    5.1609   11.0662 C.2     1  UNL1       -0.0763
      4 C           3.4276    3.9177   10.6961 C.2     1  UNL1       -0.0654
      5 C           4.0367    3.5055    9.5025 C.2     1  UNL1       -0.0654
      6 H           5.3753    6.5019    9.9693 H       1  UNL1        0.0394
      7 H           3.5783    5.8181   11.8268 H       1  UNL1        0.0578
      8 H           2.5995    3.4262   11.1820 H       1  UNL1        0.0615
      9 H           3.7697    2.6300    8.9317 H       1  UNL1        0.0615
     10 H           5.4824    4.5321    8.1730 H       1  UNL1        0.0578
@<TRIPOS>BOND
     1    10     1    1
     2     9     5    1
     3     1     5    2
     4     1     2    1
     5     5     4    1
     6     6     2    1
     7     2     3    1
     8     4     3    2
     9     4     8    1
    10     3     7    1
