@<TRIPOS>MOLECULE
1,2,3,4,5
 25 25 0 0 0
SMALL
GASTEIGER

@<TRIPOS>ATOM
      1 C           1.9917    4.3259    8.1108 C.2     1  UNL1       -0.0477
      2 C           2.0550    3.0745    7.4332 C.2     1  UNL1       -0.0584
      3 C           3.0561    3.1711    6.4225 C.3     1  UNL1        0.0231
      4 C           3.6130    4.4782    6.4739 C.2     1  UNL1       -0.0584
      5 C           2.9823    5.1793    7.5438 C.2     1  UNL1       -0.0477
      6 C           0.8658    4.8010    8.9821 C.3     1  UNL1       -0.0395
      7 H           0.1184    5.2875    8.3500 H       1  UNL1        0.0278
      8 H           1.1979    5.5290    9.7198 H       1  UNL1        0.0278
      9 H           0.3775    3.9789    9.4990 H       1  UNL1        0.0278
     10 C           1.1186    1.9164    7.6095 C.3     1  UNL1       -0.0424
     11 H           0.4360    1.8605    6.7592 H       1  UNL1        0.0275
     12 H           0.5248    2.0214    8.5147 H       1  UNL1        0.0275
     13 H           1.6642    0.9734    7.6662 H       1  UNL1        0.0275
     14 C           3.4077    2.0998    5.4327 C.3     1  UNL1       -0.0510
     15 H           4.4760    2.1124    5.2090 H       1  UNL1        0.0242
     16 H           2.8611    2.2507    4.4989 H       1  UNL1        0.0242
     17 H           3.1490    1.1161    5.8240 H       1  UNL1        0.0242
     18 C           4.5477    5.0816    5.4681 C.3     1  UNL1       -0.0424
     19 H           3.9699    5.6127    4.7076 H       1  UNL1        0.0275
     20 H           5.1401    4.3145    4.9734 H       1  UNL1        0.0275
     21 H           5.2308    5.7915    5.9338 H       1  UNL1        0.0275
     22 C           3.1615    6.6328    7.8703 C.3     1  UNL1       -0.0395
     23 H           2.4252    7.2305    7.3273 H       1  UNL1        0.0278
     24 H           4.1536    6.9791    7.5847 H       1  UNL1        0.0278
     25 H           3.0200    6.8147    8.9357 H       1  UNL1        0.0278
@<TRIPOS>BOND
     1    16    14    1
     2    19    18    1
     3    20    18    1
     4    15    14    1
     5    14    17    1
     6    14     3    1
     7    18    21    1
     8    18     4    1
     9     3     4    1
    10     3     2    1
    11     4     5    2
    12    11    10    1
    13    23    22    1
    14     2    10    1
    15     2     1    2
    16     5    22    1
    17     5     1    1
    18    24    22    1
    19    10    13    1
    20    10    12    1
    21    22    25    1
    22     1     6    1
    23     7     6    1
    24     6     9    1
    25     6     8    1
