@<TRIPOS>MOLECULE
1,3,5,7,9
 10 10 0 0 0
SMALL
GASTEIGER

@<TRIPOS>ATOM
      1 C           3.7725    0.2318    8.3053 C.2     1  UNL1       -0.0763
      2 H           2.8031    0.3853    8.7648 H       1  UNL1        0.0578
      3 C           5.0262    0.4216    8.9305 C.3     1  UNL1        0.0054
      4 H           5.1891    0.7552    9.9475 H       1  UNL1        0.0394
      5 C           6.0255   -0.0825    8.0653 C.2     1  UNL1       -0.0763
      6 H           7.0792   -0.1653    8.3023 H       1  UNL1        0.0578
      7 C           5.3940   -0.5831    6.9117 C.2     1  UNL1       -0.0654
      8 H           5.8772   -1.1075    6.0963 H       1  UNL1        0.0615
      9 C           4.0024   -0.3738    7.0474 C.2     1  UNL1       -0.0654
     10 H           3.2396   -0.7423    6.3712 H       1  UNL1        0.0615
@<TRIPOS>BOND
     1     8     7    1
     2    10     9    1
     3     7     9    1
     4     7     5    2
     5     9     1    2
     6     5     6    1
     7     5     3    1
     8     1     2    1
     9     1     3    1
    10     3     4    1
