@<TRIPOS>MOLECULE
1,3,5,7,9
 10 10 0 0 0
SMALL
GASTEIGER

@<TRIPOS>ATOM
      1 C          -0.0670   11.0445   10.1929 C.2     1  UNL1       -0.0763
      2 H           0.9718   11.0940   10.4971 H       1  UNL1        0.0578
      3 C          -1.0296   12.0531   10.4110 C.3     1  UNL1        0.0054
      4 H          -0.8444   12.9941   10.9108 H       1  UNL1        0.0394
      5 C          -2.2118   11.6846    9.7312 C.2     1  UNL1       -0.0763
      6 H          -3.1103   12.2835    9.6314 H       1  UNL1        0.0578
      7 C          -1.9675   10.4580    9.0717 C.2     1  UNL1       -0.0654
      8 H          -2.6473    9.9628    8.3879 H       1  UNL1        0.0615
      9 C          -0.6415   10.0722    9.3465 C.2     1  UNL1       -0.0654
     10 H          -0.1138    9.2508    8.8787 H       1  UNL1        0.0615
@<TRIPOS>BOND
     1     8     7    1
     2    10     9    1
     3     7     9    1
     4     7     5    2
     5     9     1    2
     6     6     5    1
     7     5     3    1
     8     1     3    1
     9     1     2    1
    10     3     4    1
