@<TRIPOS>MOLECULE
1,3,5,7,9
 10 10 0 0 0
SMALL
GASTEIGER

@<TRIPOS>ATOM
      1 C          -0.3861   10.4431    8.0437 C.2     1  UNL1       -0.0763
      2 H           0.2273    9.9125    8.7593 H       1  UNL1        0.0578
      3 C          -0.1032   11.7155    7.5016 C.2     1  UNL1       -0.0654
      4 H           0.7801   12.3005    7.7149 H       1  UNL1        0.0615
      5 C          -1.2269   12.1383    6.7708 C.2     1  UNL1       -0.0654
      6 H          -1.3670   13.1083    6.3205 H       1  UNL1        0.0615
      7 C          -2.1997   11.1195    6.8275 C.2     1  UNL1       -0.0763
      8 H          -3.2159   11.2015    6.4683 H       1  UNL1        0.0578
      9 C          -1.6893   10.0798    7.6403 C.3     1  UNL1        0.0054
     10 H          -2.2630    9.2573    8.0428 H       1  UNL1        0.0394
@<TRIPOS>BOND
     1     6     5    1
     2     8     7    1
     3     5     7    2
     4     5     3    1
     5     7     9    1
     6     3     4    1
     7     3     1    2
     8     9    10    1
     9     9     1    1
    10     1     2    1
