@<TRIPOS>MOLECULE
1,3,5,7,9
 10 10 0 0 0
SMALL
GASTEIGER

@<TRIPOS>ATOM
      1 C          -2.2088    7.4897   11.9522 C.2     1  UNL1       -0.0837
      2 H          -3.1152    6.9279   11.7603 H       1  UNL1        0.0572
      3 C          -1.8690    8.1141   13.1702 C.3     1  UNL1       -0.0127
      4 H          -2.4390    8.0585   14.0883 H       1  UNL1        0.0352
      5 C          -0.5491    8.6232   13.0483 C.3     1  UNL1       -0.0235
      6 H           0.0415    9.0438   13.8546 H       1  UNL1        0.0315
      7 C          -0.0833    8.3033   11.7558 C.3     1  UNL1       -0.0127
      8 H           0.9298    8.4435   11.3986 H       1  UNL1        0.0352
      9 C          -1.1140    7.6169   11.0757 C.2     1  UNL1       -0.0837
     10 H          -1.0333    7.1445   10.1041 H       1  UNL1        0.0572
@<TRIPOS>BOND
     1    10     9    1
     2     9     7    1
     3     9     1    2
     4     8     7    1
     5     7     5    1
     6     2     1    1
     7     1     3    1
     8     5     3    1
     9     5     6    1
    10     3     4    1
