@<TRIPOS>MOLECULE
1,3,5,7,9
 10 10 0 0 0
SMALL
GASTEIGER

@<TRIPOS>ATOM
      1 C          -2.1066    8.2311    5.3240 C.2     1  UNL1       -0.0763
      2 H          -3.1363    8.3502    5.6299 H       1  UNL1        0.0578
      3 C          -1.5927    8.5396    4.0456 C.3     1  UNL1        0.0054
      4 H          -2.1614    8.9221    3.2088 H       1  UNL1        0.0394
      5 C          -0.2641    8.0412    3.9844 C.2     1  UNL1       -0.0763
      6 H           0.3413    7.9780    3.0922 H       1  UNL1        0.0578
      7 C           0.0312    7.4381    5.2220 C.2     1  UNL1       -0.0654
      8 H           0.9267    6.8800    5.4532 H       1  UNL1        0.0615
      9 C          -1.0978    7.5627    6.0504 C.2     1  UNL1       -0.0654
     10 H          -1.2180    7.0914    7.0151 H       1  UNL1        0.0615
@<TRIPOS>BOND
     1     6     5    1
     2     4     3    1
     3     5     3    1
     4     5     7    2
     5     3     1    1
     6     7     8    1
     7     7     9    1
     8     1     2    1
     9     1     9    2
    10     9    10    1
