@<TRIPOS>MOLECULE
12,13,24,25,26
 49 51 0 0 0
SMALL
GASTEIGER

@<TRIPOS>ATOM
      1 C           1.7025    1.5331   17.9648 C.ar    1  UNL1        0.0000
      2 H           2.3882    2.2360   18.4159 H       1  UNL1        0.0000
      3 C           0.7232    0.9384   18.7340 C.ar    1  UNL1        0.0000
      4 H           0.6593    1.1631   19.7887 H       1  UNL1        0.0000
      5 C          -0.1800    0.0599   18.1555 C.ar    1  UNL1        0.0000
      6 H          -0.9455   -0.4045   18.7591 H       1  UNL1        0.0000
      7 C          -0.1005   -0.2105   16.7999 C.ar    1  UNL1        0.0000
      8 H          -0.8066   -0.8875   16.3423 H       1  UNL1        0.0000
      9 C           0.8770    0.3827   16.0230 C.ar    1  UNL1        0.0000
     10 H           0.9327    0.1750   14.9666 H       1  UNL1        0.0000
     11 C           1.8008    1.2563   16.5983 C.ar    1  UNL1        0.0000
     12 C           2.8554    1.8725   15.7969 C.3     1  UNL1        0.0000
     13 C           4.1388    2.2638   16.2703 C.3     1  UNL1        0.0000
     14 C           5.0452    2.0532   17.4507 C.3     1  UNL1        0.0000
     15 H           4.7329    2.5478   18.3757 H       1  UNL1        0.0000
     16 C           5.2276    0.5518   17.7045 C.3     1  UNL1        0.0000
     17 H           5.9932    0.4014   18.4606 H       1  UNL1        0.0000
     18 H           5.5323    0.0490   16.7892 H       1  UNL1        0.0000
     19 H           4.2902    0.1219   18.0479 H       1  UNL1        0.0000
     20 O           6.2652    2.6871   17.0577 O.3     1  UNL1        0.0000
     21 C           6.3615    2.7557   15.6398 C.3     1  UNL1        0.0000
     22 H           6.9407    1.9038   15.2490 H       1  UNL1        0.0000
     23 H           6.8835    3.6802   15.3878 H       1  UNL1        0.0000
     24 C           4.9441    2.6655   15.1660 C.3     1  UNL1        0.0000
     25 C           4.1935    2.5795   13.9693 C.3     1  UNL1        0.0000
     26 C           2.9667    1.7997   14.2994 C.2     1  UNL1        0.0000
     27 O           2.2204    1.2575   13.5064 O.2     1  UNL1        0.0000
     28 SI          4.8104    2.7248   12.1870 Si      1  UNL1        0.0000
     29 C           6.3034    3.9129   12.2247 C.3     1  UNL1        0.0000
     30 H           6.0582    4.8289   12.7525 H       1  UNL1        0.0000
     31 H           6.5999    4.1872   11.2186 H       1  UNL1        0.0000
     32 H           7.1671    3.4728   12.7123 H       1  UNL1        0.0000
     33 C           3.3972    3.4832   11.1642 C.3     1  UNL1        0.0000
     34 H           3.1940    4.5015   11.4848 H       1  UNL1        0.0000
     35 H           2.4861    2.9076   11.2917 H       1  UNL1        0.0000
     36 H           3.6304    3.5107   10.1047 H       1  UNL1        0.0000
     37 C           5.3419    0.9746   11.5511 C.3     1  UNL1        0.0000
     38 C           6.3410    1.1219   10.4010 C.3     1  UNL1        0.0000
     39 H           6.6101    0.1412   10.0104 H       1  UNL1        0.0000
     40 H           7.2505    1.6168   10.7320 H       1  UNL1        0.0000
     41 H           5.9117    1.7030    9.5883 H       1  UNL1        0.0000
     42 C           4.1247    0.1983   11.0448 C.3     1  UNL1        0.0000
     43 H           4.4157   -0.8105   10.7533 H       1  UNL1        0.0000
     44 H           3.6901    0.6902   10.1786 H       1  UNL1        0.0000
     45 H           3.3606    0.1285   11.8134 H       1  UNL1        0.0000
     46 C           6.0019    0.1730   12.6767 C.3     1  UNL1        0.0000
     47 H           6.3226   -0.8007   12.3076 H       1  UNL1        0.0000
     48 H           5.3021    0.0107   13.4940 H       1  UNL1        0.0000
     49 H           6.8774    0.6917   13.0637 H       1  UNL1        0.0000
@<TRIPOS>BOND
     1    41    38    1
     2    39    38    1
     3    36    33    1
     4    44    42    1
     5    38    40    1
     6    38    37    1
     7    43    42    1
     8    42    37    1
     9    42    45    1
    10    33    35    1
    11    33    34    1
    12    33    28    1
    13    31    29    1
    14    37    28    1
    15    37    46    1
    16    28    29    1
    17    28    25    1
    18    29    32    1
    19    29    30    1
    20    47    46    1
    21    46    49    1
    22    46    48    1
    23    27    26    2
    24    25    26    1
    25    25    24    1
    26    26    12    1
    27    10     9    1
    28    24    21    1
    29    24    13    1
    30    22    21    1
    31    23    21    1
    32    21    20    1
    33    12    13    1
    34    12    11    1
    35     9    11   ar
    36     9     7   ar
    37    13    14    1
    38     8     7    1
    39    11     1   ar
    40    18    16    1
    41     7     5   ar
    42    20    14    1
    43    14    16    1
    44    14    15    1
    45    16    19    1
    46    16    17    1
    47     1     2    1
    48     1     3   ar
    49     5     3   ar
    50     5     6    1
    51     3     4    1
