@<TRIPOS>MOLECULE
1,2,3,4,5
 25 25 0 0 0
SMALL
GASTEIGER

@<TRIPOS>ATOM
      1 C           3.0389    2.7537    5.1712 C.2     1  UNL1       -0.0584
      2 C           4.3804    2.2739    5.4044 C.3     1  UNL1        0.0231
      3 C           4.3263    1.3478    6.4921 C.2     1  UNL1       -0.0584
      4 C           2.9699    1.2089    6.8823 C.2     1  UNL1       -0.0477
      5 C           2.1793    2.0998    6.0771 C.2     1  UNL1       -0.0477
      6 C           2.6889    3.9226    4.2961 C.3     1  UNL1       -0.0424
      7 C           5.6480    2.9386    4.9410 C.3     1  UNL1       -0.0510
      8 C           5.5171    0.7591    7.1887 C.3     1  UNL1       -0.0424
      9 C           2.5094    0.5103    8.1267 C.3     1  UNL1       -0.0395
     10 C           0.7737    2.5081    6.4158 C.3     1  UNL1       -0.0395
     11 H           2.9951    4.8518    4.7820 H       1  UNL1        0.0275
     12 H           1.6167    3.9767    4.1162 H       1  UNL1        0.0275
     13 H           3.1930    3.8668    3.3317 H       1  UNL1        0.0275
     14 H           6.0753    3.5162    5.7638 H       1  UNL1        0.0242
     15 H           5.4618    3.6200    4.1142 H       1  UNL1        0.0242
     16 H           6.3846    2.2028    4.6232 H       1  UNL1        0.0242
     17 H           5.8348    1.4133    8.0035 H       1  UNL1        0.0275
     18 H           6.3493    0.6438    6.4970 H       1  UNL1        0.0275
     19 H           5.2841   -0.2183    7.6066 H       1  UNL1        0.0275
     20 H           3.0530   -0.4209    8.2749 H       1  UNL1        0.0278
     21 H           2.6930    1.1489    8.9938 H       1  UNL1        0.0278
     22 H           1.4457    0.2858    8.0956 H       1  UNL1        0.0278
     23 H           0.1591    1.6606    6.7198 H       1  UNL1        0.0278
     24 H           0.2837    3.0120    5.5848 H       1  UNL1        0.0278
     25 H           0.7997    3.2056    7.2566 H       1  UNL1        0.0278
@<TRIPOS>BOND
     1    13     6    1
     2    15     7    1
     3    12     6    1
     4     6    11    1
     5     6     1    1
     6    16     7    1
     7     7     2    1
     8     7    14    1
     9     1     2    1
    10     1     5    2
    11     2     3    1
    12    24    10    1
    13     5    10    1
    14     5     4    1
    15    10    23    1
    16    10    25    1
    17     3     4    2
    18     3     8    1
    19    18     8    1
    20     4     9    1
    21     8    19    1
    22     8    17    1
    23    22     9    1
    24     9    20    1
    25     9    21    1
