@<TRIPOS>MOLECULE
1,2,3,4,5
 25 25 0 0 0
SMALL
GASTEIGER

@<TRIPOS>ATOM
      1 C           3.5400    0.3042   12.1797 C.2     1  UNL1       -0.0584
      2 C           3.8082    1.0626   13.3623 C.2     1  UNL1       -0.0477
      3 C           2.7651    0.7980   14.3001 C.2     1  UNL1       -0.0477
      4 C           1.8027   -0.0314   13.6645 C.2     1  UNL1       -0.0584
      5 C           2.2912   -0.3593   12.3568 C.3     1  UNL1        0.0231
      6 C           4.4812    0.1053   11.0328 C.3     1  UNL1       -0.0424
      7 C           5.0665    1.8133   13.6655 C.3     1  UNL1       -0.0395
      8 C           2.7184    1.2189   15.7287 C.3     1  UNL1       -0.0395
      9 C           0.6167   -0.6331   14.3486 C.3     1  UNL1       -0.0424
     10 C           1.6953   -1.3733   11.4322 C.3     1  UNL1       -0.0510
     11 H           5.1388   -0.7412   11.2391 H       1  UNL1        0.0275
     12 H           3.9393   -0.1008   10.1130 H       1  UNL1        0.0275
     13 H           5.0992    0.9857   10.8753 H       1  UNL1        0.0275
     14 H           5.7580    1.1852   14.2297 H       1  UNL1        0.0278
     15 H           5.5588    2.1296   12.7499 H       1  UNL1        0.0278
     16 H           4.8463    2.7003   14.2556 H       1  UNL1        0.0278
     17 H           2.8335    0.3471   16.3745 H       1  UNL1        0.0278
     18 H           3.5084    1.9291   15.9538 H       1  UNL1        0.0278
     19 H           1.7599    1.6859   15.9645 H       1  UNL1        0.0278
     20 H           0.9245   -1.4889   14.9523 H       1  UNL1        0.0275
     21 H           0.1473    0.0973   15.0060 H       1  UNL1        0.0275
     22 H          -0.1229   -0.9699   13.6270 H       1  UNL1        0.0275
     23 H           2.0820   -2.3667   11.6672 H       1  UNL1        0.0242
     24 H           0.6129   -1.3973   11.5290 H       1  UNL1        0.0242
     25 H           1.9396   -1.1478   10.3971 H       1  UNL1        0.0242
@<TRIPOS>BOND
     1    12     6    1
     2    25    10    1
     3    13     6    1
     4     6    11    1
     5     6     1    1
     6    10    24    1
     7    10    23    1
     8    10     5    1
     9     1     5    1
    10     1     2    2
    11     5     4    1
    12    15     7    1
    13     2     7    1
    14     2     3    1
    15    22     9    1
    16     4     3    2
    17     4     9    1
    18     7    14    1
    19     7    16    1
    20     3     8    1
    21     9    20    1
    22     9    21    1
    23     8    18    1
    24     8    19    1
    25     8    17    1
