@<TRIPOS>MOLECULE
3,4,5,6,7
 34 34 0 0 0
SMALL
GASTEIGER

@<TRIPOS>ATOM
      1 SI          0.2519    2.1274   11.3214 Si      1  UNL1        0.0000
      2 SI          4.1860    2.1235    7.0385 Si      1  UNL1        0.0000
      3 C           1.0675    2.6269    9.7035 C.3     1  UNL1        0.0000
      4 C           2.3327    2.1353    9.3006 C.2     1  UNL1        0.0000
      5 C           2.6044    2.5307    7.9766 C.2     1  UNL1        0.0000
      6 C           1.4713    3.2679    7.5349 C.3     1  UNL1        0.0000
      7 C           0.5283    3.2992    8.5726 C.3     1  UNL1        0.0000
      8 C           1.4893    2.4071   12.7582 C.3     1  UNL1        0.0000
      9 C          -1.3720    3.0841   11.6565 C.3     1  UNL1        0.0000
     10 C          -0.1823    0.2667   11.2076 C.3     1  UNL1        0.0000
     11 C           4.1350    0.2756    6.5418 C.3     1  UNL1        0.0000
     12 C           5.6649    2.4348    8.2101 C.3     1  UNL1        0.0000
     13 C           4.3122    3.1908    5.4576 C.3     1  UNL1        0.0000
     14 H           2.9807    1.5166    9.9084 H       1  UNL1        0.0000
     15 H           1.3198    3.6258    6.5251 H       1  UNL1        0.0000
     16 H          -0.4910    3.6471    8.4841 H       1  UNL1        0.0000
     17 H           1.0253    2.9020   13.6064 H       1  UNL1        0.0000
     18 H           2.3311    3.0164   12.4348 H       1  UNL1        0.0000
     19 H           1.8907    1.4639   13.1168 H       1  UNL1        0.0000
     20 H          -1.9353    2.5912   12.4428 H       1  UNL1        0.0000
     21 H          -1.1932    4.1052   11.9788 H       1  UNL1        0.0000
     22 H          -2.0091    3.1158   10.7776 H       1  UNL1        0.0000
     23 H           0.6937   -0.3317   10.9770 H       1  UNL1        0.0000
     24 H          -0.9193    0.0772   10.4331 H       1  UNL1        0.0000
     25 H          -0.5916   -0.0945   12.1459 H       1  UNL1        0.0000
     26 H           3.3155    0.0674    5.8618 H       1  UNL1        0.0000
     27 H           5.0553   -0.0088    6.0435 H       1  UNL1        0.0000
     28 H           4.0154   -0.3692    7.4063 H       1  UNL1        0.0000
     29 H           5.5058    3.3541    8.7714 H       1  UNL1        0.0000
     30 H           6.6016    2.5282    7.6692 H       1  UNL1        0.0000
     31 H           5.7791    1.6270    8.9277 H       1  UNL1        0.0000
     32 H           4.3422    4.2465    5.7086 H       1  UNL1        0.0000
     33 H           5.2141    2.9558    4.9011 H       1  UNL1        0.0000
     34 H           3.4680    3.0262    4.7944 H       1  UNL1        0.0000
@<TRIPOS>BOND
     1    34    13    1
     2    33    13    1
     3    13    32    1
     4    13     2    1
     5    26    11    1
     6    27    11    1
     7    15     6    1
     8    11     2    1
     9    11    28    1
    10     2     5    1
    11     2    12    1
    12     6     5    1
    13     6     7    1
    14    30    12    1
    15     5     4    2
    16    12    29    1
    17    12    31    1
    18    16     7    1
    19     7     3    1
    20     4     3    1
    21     4    14    1
    22     3     1    1
    23    24    10    1
    24    22     9    1
    25    23    10    1
    26    10     1    1
    27    10    25    1
    28     1     9    1
    29     1     8    1
    30     9    21    1
    31     9    20    1
    32    18     8    1
    33     8    19    1
    34     8    17    1
