@<TRIPOS>MOLECULE
1,2,3,4,5
 34 34 0 0 0
SMALL
GASTEIGER

@<TRIPOS>ATOM
      1 C           1.0676    6.4195    8.8816 C.3     1  UNL1        0.0000
      2 C           2.3329    6.9111    9.2843 C.2     1  UNL1        0.0000
      3 C           2.6045    6.5159   10.6084 C.2     1  UNL1        0.0000
      4 C           1.4714    5.7788   11.0502 C.3     1  UNL1        0.0000
      5 C           0.5284    5.7474   10.0126 C.3     1  UNL1        0.0000
      6 SI          0.2520    6.9190    7.2636 Si      1  UNL1        0.0000
      7 H           2.9808    7.5298    8.6765 H       1  UNL1        0.0000
      8 SI          4.1861    6.9231   11.5465 Si      1  UNL1        0.0000
      9 H           1.3200    5.4209   12.0600 H       1  UNL1        0.0000
     10 H          -0.4910    5.3995   10.1011 H       1  UNL1        0.0000
     11 C           1.4894    6.6392    5.8268 C.3     1  UNL1        0.0000
     12 C          -1.3720    5.9626    6.9287 C.3     1  UNL1        0.0000
     13 C          -0.1821    8.7798    7.3773 C.3     1  UNL1        0.0000
     14 C           4.1351    8.7710   12.0431 C.3     1  UNL1        0.0000
     15 C           5.6649    6.6115   10.3748 C.3     1  UNL1        0.0000
     16 C           4.3120    5.8559   13.1275 C.3     1  UNL1        0.0000
     17 H           1.0258    6.1406    4.9800 H       1  UNL1        0.0000
     18 H           2.3329    6.0326    6.1515 H       1  UNL1        0.0000
     19 H           1.8881    7.5827    5.4653 H       1  UNL1        0.0000
     20 H          -1.9353    6.4555    6.1423 H       1  UNL1        0.0000
     21 H          -1.1933    4.9415    6.6064 H       1  UNL1        0.0000
     22 H          -2.0092    5.9309    7.8075 H       1  UNL1        0.0000
     23 H           0.6940    9.3782    7.6077 H       1  UNL1        0.0000
     24 H          -0.9190    8.9696    8.1518 H       1  UNL1        0.0000
     25 H          -0.5914    9.1409    6.4389 H       1  UNL1        0.0000
     26 H           3.3156    8.9792   12.7230 H       1  UNL1        0.0000
     27 H           5.0554    9.0553   12.5415 H       1  UNL1        0.0000
     28 H           4.0156    9.4157   11.1786 H       1  UNL1        0.0000
     29 H           5.5057    5.6922    9.8137 H       1  UNL1        0.0000
     30 H           6.6017    6.5181   10.9156 H       1  UNL1        0.0000
     31 H           5.7790    7.4192    9.6571 H       1  UNL1        0.0000
     32 H           4.3417    4.8001   12.8767 H       1  UNL1        0.0000
     33 H           5.2138    6.0908   13.6841 H       1  UNL1        0.0000
     34 H           3.4676    6.0208   13.7905 H       1  UNL1        0.0000
@<TRIPOS>BOND
     1    17    11    1
     2    19    11    1
     3    11    18    1
     4    11     6    1
     5    20    12    1
     6    25    13    1
     7    21    12    1
     8    12     6    1
     9    12    22    1
    10     6    13    1
    11     6     1    1
    12    13    23    1
    13    13    24    1
    14     7     2    1
    15     1     2    1
    16     1     5    1
    17     2     3    2
    18    31    15    1
    19    29    15    1
    20     5    10    1
    21     5     4    1
    22    15    30    1
    23    15     8    1
    24     3     4    1
    25     3     8    1
    26     4     9    1
    27    28    14    1
    28     8    14    1
    29     8    16    1
    30    14    27    1
    31    14    26    1
    32    32    16    1
    33    16    33    1
    34    16    34    1
