@<TRIPOS>MOLECULE
1,2,3,17,18
 28 28 0 0 0
SMALL
GASTEIGER

@<TRIPOS>ATOM
      1 C           2.0227    0.7148    4.2947 C.2     1  UNL1       -0.0477
      2 C           1.0490    1.1593    3.3638 C.2     1  UNL1       -0.0582
      3 C           0.4437    0.0000    2.7724 C.3     1  UNL1        0.0259
      4 C           2.8657    1.5428    5.2032 C.3     1  UNL1       -0.0395
      5 C           0.5809    2.5722    3.1912 C.3     1  UNL1       -0.0424
      6 C          -0.7996    0.0000    1.9312 C.3     1  UNL1       -0.0417
      7 C          -2.0502   -0.0000    2.8137 C.3     1  UNL1       -0.0642
      8 H           2.6566    1.2923    6.2437 H       1  UNL1        0.0278
      9 H           3.9218    1.3392    5.0123 H       1  UNL1        0.0278
     10 H           2.6830    2.6033    5.0556 H       1  UNL1        0.0278
     11 H          -0.1652    2.8113    3.9517 H       1  UNL1        0.0275
     12 H           1.4048    3.2747    3.2933 H       1  UNL1        0.0275
     13 H           0.1289    2.7168    2.2132 H       1  UNL1        0.0275
     14 H          -0.8109    0.8799    1.2853 H       1  UNL1        0.0274
     15 H          -2.9478   -0.0000    2.1998 H       1  UNL1        0.0230
     16 H          -2.0652    0.8817    3.4497 H       1  UNL1        0.0230
     17 C           2.0227   -0.7149    4.2946 C.2     1  UNL1       -0.0477
     18 C           1.0491   -1.1593    3.3637 C.2     1  UNL1       -0.0582
     19 H          -0.8108   -0.8798    1.2852 H       1  UNL1        0.0274
     20 H          -2.0651   -0.8817    3.4497 H       1  UNL1        0.0230
     21 C           2.8658   -1.5429    5.2031 C.3     1  UNL1       -0.0395
     22 C           0.5810   -2.5722    3.1910 C.3     1  UNL1       -0.0424
     23 H           2.6565   -1.2924    6.2436 H       1  UNL1        0.0278
     24 H           3.9219   -1.3391    5.0123 H       1  UNL1        0.0278
     25 H           2.6831   -2.6033    5.0554 H       1  UNL1        0.0278
     26 H          -0.1651   -2.8114    3.9515 H       1  UNL1        0.0275
     27 H           1.4048   -3.2746    3.2932 H       1  UNL1        0.0275
     28 H           0.1290   -2.7168    2.2130 H       1  UNL1        0.0275
@<TRIPOS>BOND
     1    19     6    1
     2    14     6    1
     3     6     3    1
     4     6     7    1
     5    15     7    1
     6    28    22    1
     7    13     5    1
     8     3    18    1
     9     3     2    1
    10     7    16    1
    11     7    20    1
    12    22    27    1
    13    22    18    1
    14    22    26    1
    15     5    12    1
    16     5     2    1
    17     5    11    1
    18    18    17    2
    19     2     1    2
    20    17     1    1
    21    17    21    1
    22     1     4    1
    23    24    21    1
    24     9     4    1
    25    25    21    1
    26    10     4    1
    27    21    23    1
    28     4     8    1
