@<TRIPOS>MOLECULE
1,2,3,4,5
 10 10 0 0 0
SMALL
GASTEIGER

@<TRIPOS>ATOM
      1 C          -3.8286    1.6125   11.7918 C.2     1  UNL1       -0.0654
      2 C          -2.5107    1.2210   12.0741 C.2     1  UNL1       -0.0654
      3 C          -2.1123    1.8416   13.2745 C.2     1  UNL1       -0.0763
      4 C          -3.1779    2.6564   13.7142 C.3     1  UNL1        0.0054
      5 C          -4.2459    2.5058   12.8048 C.2     1  UNL1       -0.0763
      6 H          -4.3778    1.3877   10.8880 H       1  UNL1        0.0615
      7 H          -1.8733    0.6476   11.4143 H       1  UNL1        0.0615
      8 H          -1.1222    1.8108   13.7150 H       1  UNL1        0.0578
      9 H          -3.1263    3.3671   14.5291 H       1  UNL1        0.0394
     10 H          -5.1510    3.1009   12.7762 H       1  UNL1        0.0578
@<TRIPOS>BOND
     1     6     1    1
     2     7     2    1
     3     1     2    1
     4     1     5    2
     5     2     3    2
     6    10     5    1
     7     5     4    1
     8     3     4    1
     9     3     8    1
    10     4     9    1
