@<TRIPOS>MOLECULE
1,2,3,4,5
 10 10 0 0 0
SMALL
GASTEIGER

@<TRIPOS>ATOM
      1 C          -4.3668   -2.1720   13.4807 C.3     1  UNL1       -0.0127
      2 C          -3.8163   -2.2662   14.7770 C.2     1  UNL1       -0.0837
      3 C          -2.4929   -1.7994   14.7278 C.2     1  UNL1       -0.0837
      4 C          -2.2097   -1.4192   13.4035 C.3     1  UNL1       -0.0127
      5 C          -3.3691   -1.6510   12.6240 C.3     1  UNL1       -0.0235
      6 H          -5.3248   -2.5730   13.1735 H       1  UNL1        0.0352
      7 H          -4.2805   -2.7377   15.6319 H       1  UNL1        0.0572
      8 H          -1.7856   -1.8176   15.5465 H       1  UNL1        0.0572
      9 H          -1.2278   -1.1556   13.0284 H       1  UNL1        0.0352
     10 H          -3.4282   -1.5952   11.5428 H       1  UNL1        0.0315
@<TRIPOS>BOND
     1    10     5    1
     2     5     4    1
     3     5     1    1
     4     9     4    1
     5     6     1    1
     6     4     3    1
     7     1     2    1
     8     3     2    2
     9     3     8    1
    10     2     7    1
