@<TRIPOS>MOLECULE
1,3,5,7,9
 10 10 0 0 0
SMALL
GASTEIGER

@<TRIPOS>ATOM
      1 C           6.9811   10.4950    5.7116 C.2     1  UNL1       -0.0837
      2 H           7.0828   10.4144    6.7820 H       1  UNL1        0.0572
      3 C           5.8378   10.2019    4.9571 C.2     1  UNL1       -0.0837
      4 H           4.8882    9.8572    5.3387 H       1  UNL1        0.0572
      5 C           6.0979   10.5680    3.6026 C.3     1  UNL1       -0.0127
      6 H           5.3672   10.5695    2.8096 H       1  UNL1        0.0352
      7 C           7.3814   11.1210    3.5373 C.3     1  UNL1       -0.0235
      8 H           7.8268   11.5916    2.6762 H       1  UNL1        0.0315
      9 C           7.9690   11.0113    4.8233 C.3     1  UNL1       -0.0127
     10 H           8.9126   11.4424    5.1218 H       1  UNL1        0.0352
@<TRIPOS>BOND
     1     8     7    1
     2     6     5    1
     3     7     5    1
     4     7     9    1
     5     5     3    1
     6     9    10    1
     7     9     1    1
     8     3     4    1
     9     3     1    2
    10     1     2    1
