@<TRIPOS>MOLECULE
1,2,3,4,5
 22 22 0 0 0
SMALL
GASTEIGER

@<TRIPOS>ATOM
      1 C           6.6070   12.3840    4.4524 C.2     1  UNL1       -0.0565
      2 C           6.7380   12.8405    5.7889 C.3     1  UNL1        0.0092
      3 C           8.0872   12.6813    6.1859 C.2     1  UNL1       -0.0760
      4 C           8.7914   12.1088    5.1086 C.2     1  UNL1       -0.0651
      5 C           7.8806   11.9103    4.0467 C.2     1  UNL1       -0.0617
      6 C           5.4129   12.6252    3.5496 C.3     1  UNL1       -0.0158
      7 C           4.0985   12.4696    4.3246 C.3     1  UNL1       -0.0563
      8 C           5.4152   11.6511    2.3662 C.3     1  UNL1       -0.0563
      9 C           5.5125   14.0640    3.0129 C.3     1  UNL1       -0.0563
     10 H           5.9889   13.3916    6.3456 H       1  UNL1        0.0397
     11 H           8.5278   13.0861    7.0895 H       1  UNL1        0.0578
     12 H           9.8658   11.9781    5.0503 H       1  UNL1        0.0615
     13 H           8.1513   11.6001    3.0452 H       1  UNL1        0.0617
     14 H           4.0547   11.4925    4.8081 H       1  UNL1        0.0238
     15 H           3.9994   13.2404    5.0853 H       1  UNL1        0.0238
     16 H           3.2515   12.5617    3.6480 H       1  UNL1        0.0238
     17 H           6.2669   11.8296    1.7143 H       1  UNL1        0.0238
     18 H           5.4588   10.6223    2.7234 H       1  UNL1        0.0238
     19 H           4.5113   11.7827    1.7747 H       1  UNL1        0.0238
     20 H           5.5025   14.7783    3.8327 H       1  UNL1        0.0238
     21 H           6.4372   14.1979    2.4565 H       1  UNL1        0.0238
     22 H           4.6751   14.2805    2.3534 H       1  UNL1        0.0238
@<TRIPOS>BOND
     1    17     8    1
     2    19     8    1
     3    22     9    1
     4     8    18    1
     5     8     6    1
     6    21     9    1
     7     9     6    1
     8     9    20    1
     9    13     5    1
    10     6     7    1
    11     6     1    1
    12    16     7    1
    13     5     1    2
    14     5     4    1
    15     7    14    1
    16     7    15    1
    17     1     2    1
    18    12     4    1
    19     4     3    2
    20     2     3    1
    21     2    10    1
    22     3    11    1
