@<TRIPOS>MOLECULE
1,2,3,4,5
 22 22 0 0 0
SMALL
GASTEIGER

@<TRIPOS>ATOM
      1 C           9.3675    6.6381    9.8613 C.2     1  UNL1       -0.0456
      2 C          10.5358    5.9638   10.2852 C.2     1  UNL1       -0.0617
      3 C          11.4987    6.9202   10.6708 C.2     1  UNL1       -0.0760
      4 C          10.9331    8.1980   10.4926 C.3     1  UNL1        0.0057
      5 C           9.6299    8.0272    9.9748 C.2     1  UNL1       -0.0726
      6 C           8.0321    5.9984    9.5241 C.3     1  UNL1       -0.0130
      7 C           7.8876    5.8008    8.0064 C.3     1  UNL1       -0.0561
      8 C           6.8826    6.8903   10.0149 C.3     1  UNL1       -0.0561
      9 C           7.9170    4.6342   10.2168 C.3     1  UNL1       -0.0561
     10 H          10.6303    4.9013   10.4536 H       1  UNL1        0.0617
     11 H          12.4362    6.7007   11.1689 H       1  UNL1        0.0578
     12 H          11.3419    9.1314   10.8576 H       1  UNL1        0.0394
     13 H           8.8960    8.8177    9.9033 H       1  UNL1        0.0581
     14 H           7.8640    6.7654    7.4990 H       1  UNL1        0.0238
     15 H           8.7287    5.2264    7.6129 H       1  UNL1        0.0238
     16 H           6.9622    5.2689    7.7873 H       1  UNL1        0.0238
     17 H           6.9978    7.1116   11.0733 H       1  UNL1        0.0238
     18 H           6.8518    7.8258    9.4627 H       1  UNL1        0.0238
     19 H           5.9299    6.3850    9.8708 H       1  UNL1        0.0238
     20 H           8.6499    3.9357    9.8223 H       1  UNL1        0.0238
     21 H           8.0741    4.7374   11.2879 H       1  UNL1        0.0238
     22 H           6.9261    4.2149   10.0541 H       1  UNL1        0.0238
@<TRIPOS>BOND
     1    14     7    1
     2    15     7    1
     3    16     7    1
     4     7     6    1
     5    18     8    1
     6     6     1    1
     7     6     8    1
     8     6     9    1
     9    20     9    1
    10     1     5    2
    11     1     2    1
    12    19     8    1
    13    13     5    1
    14     5     4    1
    15     8    17    1
    16    22     9    1
    17     9    21    1
    18     2    10    1
    19     2     3    2
    20     4     3    1
    21     4    12    1
    22     3    11    1
