@<TRIPOS>MOLECULE
1,2,3,4,5
 22 22 0 0 0
SMALL
GASTEIGER

@<TRIPOS>ATOM
      1 C          12.8170    9.2486    7.5387 C.2     1  UNL1       -0.0565
      2 C          12.9313    8.2815    6.5117 C.2     1  UNL1       -0.0617
      3 C          13.5405    7.1271    7.0492 C.2     1  UNL1       -0.0651
      4 C          13.8051    7.3731    8.4142 C.2     1  UNL1       -0.0760
      5 C          13.3638    8.6770    8.7106 C.3     1  UNL1        0.0092
      6 C          12.4268   10.7070    7.3985 C.3     1  UNL1       -0.0158
      7 C          11.3544   11.0548    8.4413 C.3     1  UNL1       -0.0563
      8 C          13.6691   11.5818    7.6303 C.3     1  UNL1       -0.0563
      9 C          11.8736   11.0004    6.0024 C.3     1  UNL1       -0.0563
     10 H          12.7061    8.4346    5.4661 H       1  UNL1        0.0617
     11 H          13.8762    6.2726    6.4746 H       1  UNL1        0.0615
     12 H          14.4084    6.7594    9.0732 H       1  UNL1        0.0578
     13 H          13.5651    9.1992    9.6373 H       1  UNL1        0.0397
     14 H          10.5284   10.3416    8.3709 H       1  UNL1        0.0238
     15 H          11.7704   11.0287    9.4467 H       1  UNL1        0.0238
     16 H          10.9695   12.0586    8.2686 H       1  UNL1        0.0238
     17 H          14.0784   11.4233    8.6250 H       1  UNL1        0.0238
     18 H          14.4398   11.3366    6.9036 H       1  UNL1        0.0238
     19 H          13.4158   12.6348    7.5255 H       1  UNL1        0.0238
     20 H          12.6239   10.8108    5.2392 H       1  UNL1        0.0238
     21 H          11.0050   10.3788    5.7988 H       1  UNL1        0.0238
     22 H          11.5778   12.0450    5.9265 H       1  UNL1        0.0238
@<TRIPOS>BOND
     1    20     9    1
     2    10     2    1
     3    21     9    1
     4    22     9    1
     5     9     6    1
     6    11     3    1
     7     2     3    1
     8     2     1    2
     9    18     8    1
    10     3     4    2
    11     6     1    1
    12     6     8    1
    13     6     7    1
    14    19     8    1
    15     1     5    1
    16     8    17    1
    17    16     7    1
    18    14     7    1
    19     4     5    1
    20     4    12    1
    21     7    15    1
    22     5    13    1
