@<TRIPOS>MOLECULE
2,3,4,5,6
 22 22 0 0 0
SMALL
GASTEIGER

@<TRIPOS>ATOM
      1 SI         -2.9080   13.6649    9.1563 Si      1  UNL1        0.0000
      2 C          -2.6893   11.7943    8.9647 C.2     1  UNL1        0.0000
      3 C          -2.9170   10.8141    9.9792 C.3     1  UNL1        0.0000
      4 C          -3.1178    9.5656    9.3739 C.2     1  UNL1        0.0000
      5 C          -3.0052    9.7355    7.9779 C.2     1  UNL1        0.0000
      6 C          -2.7610   11.0954    7.7209 C.2     1  UNL1        0.0000
      7 C          -2.3991   14.2282   10.9050 C.3     1  UNL1        0.0000
      8 C          -4.7839   13.9634    8.9022 C.3     1  UNL1        0.0000
      9 C          -1.9469   14.5851    7.7833 C.3     1  UNL1        0.0000
     10 H          -3.0433   11.0352   11.0320 H       1  UNL1        0.0000
     11 H          -3.4059    8.6522    9.8784 H       1  UNL1        0.0000
     12 H          -3.2027    8.9840    7.2264 H       1  UNL1        0.0000
     13 H          -2.7838   11.5578    6.7427 H       1  UNL1        0.0000
     14 H          -3.1881   14.0369   11.6263 H       1  UNL1        0.0000
     15 H          -1.5083   13.7089   11.2460 H       1  UNL1        0.0000
     16 H          -2.1923   15.2933   10.9231 H       1  UNL1        0.0000
     17 H          -5.3825   13.3997    9.6116 H       1  UNL1        0.0000
     18 H          -5.0204   15.0138    9.0350 H       1  UNL1        0.0000
     19 H          -5.1036   13.6780    7.9044 H       1  UNL1        0.0000
     20 H          -2.5502   15.3823    7.3604 H       1  UNL1        0.0000
     21 H          -1.0358   15.0318    8.1683 H       1  UNL1        0.0000
     22 H          -1.6614   13.9223    6.9703 H       1  UNL1        0.0000
@<TRIPOS>BOND
     1    13     6    1
     2    22     9    1
     3    12     5    1
     4    20     9    1
     5     6     5    1
     6     6     2    2
     7     9    21    1
     8     9     1    1
     9    19     8    1
    10     5     4    2
    11     8    18    1
    12     8     1    1
    13     8    17    1
    14     2     1    1
    15     2     3    1
    16     1     7    1
    17     4    11    1
    18     4     3    1
    19     3    10    1
    20     7    16    1
    21     7    15    1
    22     7    14    1
