@<TRIPOS>MOLECULE
2,3,4,5,6
 22 22 0 0 0
SMALL
GASTEIGER

@<TRIPOS>ATOM
      1 SI          3.1189    9.8786    8.5250 Si      1  UNL1        0.0000
      2 C           1.3761    9.1905    8.7853 C.2     1  UNL1        0.0000
      3 C           0.8252    8.8114   10.0349 C.3     1  UNL1        0.0000
      4 C          -0.3862    8.1303    9.8217 C.2     1  UNL1        0.0000
      5 C          -0.5882    8.0441    8.4252 C.2     1  UNL1        0.0000
      6 C           0.4824    8.7013    7.7868 C.2     1  UNL1        0.0000
      7 C           3.3447   10.2979    6.6770 C.3     1  UNL1        0.0000
      8 C           3.4136   11.3850    9.6617 C.3     1  UNL1        0.0000
      9 C           4.3150    8.4626    9.0024 C.3     1  UNL1        0.0000
     10 H           1.3037    8.9587   10.9946 H       1  UNL1        0.0000
     11 H          -0.9687    7.6270   10.5836 H       1  UNL1        0.0000
     12 H          -1.3391    7.4400    7.9335 H       1  UNL1        0.0000
     13 H           0.6815    8.6844    6.7238 H       1  UNL1        0.0000
     14 H           2.4888   10.8313    6.2756 H       1  UNL1        0.0000
     15 H           4.2191   10.9236    6.5299 H       1  UNL1        0.0000
     16 H           3.4828    9.4004    6.0809 H       1  UNL1        0.0000
     17 H           3.6159   12.2841    9.0876 H       1  UNL1        0.0000
     18 H           2.5443   11.5875   10.2833 H       1  UNL1        0.0000
     19 H           4.2604   11.2203   10.3211 H       1  UNL1        0.0000
     20 H           5.3430    8.7655    8.8341 H       1  UNL1        0.0000
     21 H           4.2185    8.1948   10.0500 H       1  UNL1        0.0000
     22 H           4.1361    7.5660    8.4166 H       1  UNL1        0.0000
@<TRIPOS>BOND
     1    16     7    1
     2    14     7    1
     3    15     7    1
     4     7     1    1
     5    13     6    1
     6     6     5    1
     7     6     2    2
     8    12     5    1
     9    22     9    1
    10     5     4    2
    11     1     2    1
    12     1     9    1
    13     1     8    1
    14     2     3    1
    15    20     9    1
    16     9    21    1
    17    17     8    1
    18     8    18    1
    19     8    19    1
    20     4     3    1
    21     4    11    1
    22     3    10    1
