@<TRIPOS>MOLECULE
1,3,5,7,9
 10 10 0 0 0
SMALL
GASTEIGER

@<TRIPOS>ATOM
      1 C          -0.4566    2.6453    4.1840 C.2     1  UNL1       -0.0763
      2 H          -1.2876    3.1755    4.6353 H       1  UNL1        0.0578
      3 C          -0.5637    1.6304    3.1946 C.3     1  UNL1        0.0054
      4 H          -1.4836    1.2894    2.7386 H       1  UNL1        0.0394
      5 C           0.7463    1.3466    2.7279 C.2     1  UNL1       -0.0763
      6 H           0.9908    0.7060    1.8887 H       1  UNL1        0.0578
      7 C           1.6530    2.1586    3.4379 C.2     1  UNL1       -0.0654
      8 H           2.7127    2.2544    3.2340 H       1  UNL1        0.0615
      9 C           0.9088    2.9615    4.3386 C.2     1  UNL1       -0.0654
     10 H           1.3073    3.7745    4.9346 H       1  UNL1        0.0615
@<TRIPOS>BOND
     1     6     5    1
     2     5     3    1
     3     5     7    2
     4     4     3    1
     5     3     1    1
     6     8     7    1
     7     7     9    1
     8     1     9    2
     9     1     2    1
    10     9    10    1
