@<TRIPOS>MOLECULE
1,2,3,4,5
 25 25 0 0 0
SMALL
GASTEIGER

@<TRIPOS>ATOM
      1 C          -2.4094    1.0700   13.2428 C.2     1  UNL1       -0.0477
      2 C          -2.1068    0.3774   14.4410 C.2     1  UNL1       -0.0584
      3 C          -1.2837   -0.7345   14.1015 C.3     1  UNL1        0.0231
      4 C          -1.1378   -0.7672   12.6850 C.2     1  UNL1       -0.0584
      5 C          -1.8107    0.3622   12.1572 C.2     1  UNL1       -0.0477
      6 C          -3.3826    2.2009   13.0674 C.3     1  UNL1       -0.0395
      7 C          -2.6754    0.5993   15.8121 C.3     1  UNL1       -0.0424
      8 C          -0.7821   -1.7776   15.0577 C.3     1  UNL1       -0.0510
      9 C          -0.5379   -1.9239   11.9402 C.3     1  UNL1       -0.0424
     10 C          -2.0846    0.6624   10.7111 C.3     1  UNL1       -0.0395
     11 H          -4.3172    1.8258   12.6415 H       1  UNL1        0.0278
     12 H          -3.6061    2.6774   14.0178 H       1  UNL1        0.0278
     13 H          -2.9858    2.9609   12.3943 H       1  UNL1        0.0278
     14 H          -3.3100   -0.2475   16.0844 H       1  UNL1        0.0275
     15 H          -1.8817    0.6761   16.5554 H       1  UNL1        0.0275
     16 H          -3.2781    1.5022   15.8499 H       1  UNL1        0.0275
     17 H          -1.5150   -2.5813   15.1707 H       1  UNL1        0.0242
     18 H           0.1499   -2.2092   14.6940 H       1  UNL1        0.0242
     19 H          -0.5984   -1.3378   16.0374 H       1  UNL1        0.0242
     20 H          -1.1260   -2.8248   12.1318 H       1  UNL1        0.0275
     21 H          -0.5298   -1.7441   10.8690 H       1  UNL1        0.0275
     22 H           0.4833   -2.1132   12.2717 H       1  UNL1        0.0275
     23 H          -3.1153    0.3941   10.4636 H       1  UNL1        0.0278
     24 H          -1.9508    1.7227   10.4967 H       1  UNL1        0.0278
     25 H          -1.4192    0.1015   10.0610 H       1  UNL1        0.0278
@<TRIPOS>BOND
     1    25    10    1
     2    23    10    1
     3    24    10    1
     4    10     5    1
     5    21     9    1
     6     9    20    1
     7     9    22    1
     8     9     4    1
     9     5     4    2
    10     5     1    1
    11    13     6    1
    12    11     6    1
    13     4     3    1
    14     6     1    1
    15     6    12    1
    16     1     2    2
    17     3     2    1
    18     3     8    1
    19     2     7    1
    20    18     8    1
    21     8    17    1
    22     8    19    1
    23     7    16    1
    24     7    14    1
    25     7    15    1
