@<TRIPOS>MOLECULE
1,2,3,4,5
 41 42 0 0 0
SMALL
GASTEIGER

@<TRIPOS>ATOM
      1 C           5.3696   11.8279   16.0657 C.3     1  UNL1        0.0000
      2 C           6.2221   11.1113   15.1540 C.2     1  UNL1        0.0000
      3 C           5.9808   11.5811   13.8511 C.2     1  UNL1        0.0000
      4 C           4.9633   12.5870   13.9220 C.2     1  UNL1        0.0000
      5 C           4.5739   12.7174   15.2668 C.2     1  UNL1        0.0000
      6 C           7.0612    9.9149   15.5076 C.3     1  UNL1        0.0000
      7 H           6.4168    9.0629   15.7326 H       1  UNL1        0.0000
      8 H           7.6871   10.1009   16.3782 H       1  UNL1        0.0000
      9 H           7.7058    9.6323   14.6773 H       1  UNL1        0.0000
     10 C           6.4896   10.9784   12.5716 C.3     1  UNL1        0.0000
     11 H           7.4749   10.5347   12.7040 H       1  UNL1        0.0000
     12 H           6.5565   11.7248   11.7822 H       1  UNL1        0.0000
     13 H           5.8104   10.1919   12.2322 H       1  UNL1        0.0000
     14 C           4.2764   13.1810   12.7210 C.3     1  UNL1        0.0000
     15 H           3.5412   12.4770   12.3235 H       1  UNL1        0.0000
     16 H           4.9860   13.4003   11.9228 H       1  UNL1        0.0000
     17 H           3.7523   14.1024   12.9724 H       1  UNL1        0.0000
     18 C           3.3608   13.4544   15.7627 C.3     1  UNL1        0.0000
     19 H           2.9514   14.1041   14.9908 H       1  UNL1        0.0000
     20 H           3.5785   14.0548   16.6437 H       1  UNL1        0.0000
     21 H           2.5877   12.7370   16.0411 H       1  UNL1        0.0000
     22 SI          4.9453   11.3314   17.8283 Si      1  UNL1        0.0000
     23 C           6.2865   10.3369   18.7573 C.3     1  UNL1        0.0000
     24 H           6.4278    9.3524   18.3279 H       1  UNL1        0.0000
     25 H           5.9947   10.1988   19.7938 H       1  UNL1        0.0000
     26 H           7.2454   10.8445   18.7522 H       1  UNL1        0.0000
     27 C           4.5178   12.8373   18.9429 C.3     1  UNL1        0.0000
     28 H           5.1341   13.7045   18.7168 H       1  UNL1        0.0000
     29 H           4.6689   12.5918   19.9899 H       1  UNL1        0.0000
     30 H           3.4780   13.1241   18.8273 H       1  UNL1        0.0000
     31 O           2.2034   10.8096   17.5809 O.2     1  UNL1        0.0000
     32 C           3.4090   10.2265   17.8148 C.ar    1  UNL1        0.0000
     33 C           3.2233    8.8801   17.9648 C.ar    1  UNL1        0.0000
     34 H           3.9868    8.1555   18.1612 H       1  UNL1        0.0000
     35 C           1.8395    8.6334   17.8208 C.ar    1  UNL1        0.0000
     36 H           1.3391    7.6878   17.8821 H       1  UNL1        0.0000
     37 C           1.2615    9.8464   17.5860 C.ar    1  UNL1        0.0000
     38 C          -0.1553   10.2369   17.3515 C.3     1  UNL1        0.0000
     39 H          -0.4904   10.9364   18.1170 H       1  UNL1        0.0000
     40 H          -0.7878    9.3547   17.3754 H       1  UNL1        0.0000
     41 H          -0.2597   10.7243   16.3824 H       1  UNL1        0.0000
@<TRIPOS>BOND
     1    12    10    1
     2    16    14    1
     3    13    10    1
     4    15    14    1
     5    10    11    1
     6    10     3    1
     7    14    17    1
     8    14     4    1
     9     3     4    1
    10     3     2    2
    11     4     5    2
    12     9     6    1
    13    19    18    1
    14     2     6    1
    15     2     1    1
    16     5    18    1
    17     5     1    1
    18     6     7    1
    19     6     8    1
    20    18    21    1
    21    18    20    1
    22     1    22    1
    23    41    38    1
    24    38    40    1
    25    38    37    1
    26    38    39    1
    27    31    37   ar
    28    31    32   ar
    29    37    35   ar
    30    32    22    1
    31    32    33   ar
    32    35    36    1
    33    35    33   ar
    34    22    23    1
    35    22    27    1
    36    33    34    1
    37    24    23    1
    38    28    27    1
    39    26    23    1
    40    23    25    1
    41    30    27    1
    42    27    29    1
