@<TRIPOS>MOLECULE
1,6,11,16,21
 22 22 0 0 0
SMALL
GASTEIGER

@<TRIPOS>ATOM
      1 C           3.5384   -0.4872    1.1809 C.2     1  UNL1       -0.0615
      2 C           2.4240    0.2213    0.4571 C.3     1  UNL1       -0.0426
      3 H           1.9269   -0.4586   -0.2339 H       1  UNL1        0.0275
      4 H           2.8213    1.0559   -0.1234 H       1  UNL1        0.0275
      5 H           1.6845    0.6228    1.1579 H       1  UNL1        0.0275
      6 C           4.4751    0.1147    2.0611 C.2     1  UNL1       -0.0480
      7 C           4.5187    1.5597    2.4742 C.3     1  UNL1       -0.0395
      8 H           3.6058    2.0715    2.1773 H       1  UNL1        0.0278
      9 H           5.3675    2.0643    2.0076 H       1  UNL1        0.0278
     10 H           4.6237    1.6510    3.5582 H       1  UNL1        0.0278
     11 C           5.4283   -0.8695    2.4335 C.2     1  UNL1       -0.0480
     12 C           6.6864   -0.6105    3.2150 C.3     1  UNL1       -0.0395
     13 H           7.0588   -1.5246    3.6749 H       1  UNL1        0.0278
     14 H           6.5130    0.1219    4.0029 H       1  UNL1        0.0278
     15 H           7.4639   -0.2198    2.5532 H       1  UNL1        0.0278
     16 C           5.0782   -2.0858    1.7908 C.2     1  UNL1       -0.0615
     17 C           5.8956   -3.3497    1.8183 C.3     1  UNL1       -0.0426
     18 H           5.3781   -4.1596    1.3045 H       1  UNL1        0.0275
     19 H           6.1100   -3.6610    2.8447 H       1  UNL1        0.0275
     20 H           6.8520   -3.1944    1.3133 H       1  UNL1        0.0275
     21 C           3.9196   -1.8417    1.0084 C.3     1  UNL1        0.0119
     22 H           3.5068   -2.5179    0.2680 H       1  UNL1        0.0400
@<TRIPOS>BOND
     1     3     2    1
     2     4     2    1
     3    22    21    1
     4     2     5    1
     5     2     1    1
     6    21     1    1
     7    21    16    1
     8     1     6    2
     9    18    17    1
    10    20    17    1
    11    16    17    1
    12    16    11    2
    13    17    19    1
    14     9     7    1
    15     6    11    1
    16     6     7    1
    17     8     7    1
    18    11    12    1
    19     7    10    1
    20    15    12    1
    21    12    13    1
    22    12    14    1
