@<TRIPOS>MOLECULE
1,6,11,16,21
 22 22 0 0 0
SMALL
GASTEIGER

@<TRIPOS>ATOM
      1 C           1.3247   -3.0967    2.6026 C.2     1  UNL1       -0.0613
      2 C           0.5055   -2.8315    1.3680 C.3     1  UNL1       -0.0426
      3 H           1.0269   -3.1706    0.4732 H       1  UNL1        0.0275
      4 H           0.2761   -1.7680    1.2629 H       1  UNL1        0.0275
      5 H          -0.4439   -3.3697    1.4218 H       1  UNL1        0.0275
      6 C           0.9737   -2.6979    3.9189 C.3     1  UNL1        0.0228
      7 C          -0.2772   -1.9623    4.3134 C.3     1  UNL1       -0.0510
      8 H          -0.1157   -1.3727    5.2152 H       1  UNL1        0.0242
      9 H          -1.0830   -2.6740    4.5118 H       1  UNL1        0.0242
     10 H          -0.6055   -1.2906    3.5209 H       1  UNL1        0.0242
     11 C           1.9126   -3.2720    4.8172 C.2     1  UNL1       -0.0587
     12 C           1.8703   -3.1392    6.3147 C.3     1  UNL1       -0.0424
     13 H           2.7765   -3.5436    6.7608 H       1  UNL1        0.0275
     14 H           1.0120   -3.6773    6.7226 H       1  UNL1        0.0275
     15 H           1.7843   -2.0896    6.6086 H       1  UNL1        0.0275
     16 C           2.8409   -4.0335    4.0597 C.2     1  UNL1       -0.0506
     17 C           3.9325   -4.9100    4.6144 C.3     1  UNL1       -0.0397
     18 H           4.6827   -4.3230    5.1535 H       1  UNL1        0.0278
     19 H           4.4220   -5.4594    3.8110 H       1  UNL1        0.0278
     20 H           3.5137   -5.6384    5.3111 H       1  UNL1        0.0278
     21 C           2.4703   -3.9287    2.6958 C.2     1  UNL1       -0.0590
     22 H           2.8791   -4.5282    1.8900 H       1  UNL1        0.0620
@<TRIPOS>BOND
     1     3     2    1
     2     4     2    1
     3     2     5    1
     4     2     1    1
     5    22    21    1
     6     1    21    2
     7     1     6    1
     8    21    16    1
     9    10     7    1
    10    19    17    1
    11     6     7    1
    12     6    11    1
    13    16    17    1
    14    16    11    2
    15     7     9    1
    16     7     8    1
    17    17    18    1
    18    17    20    1
    19    11    12    1
    20    12    15    1
    21    12    14    1
    22    12    13    1
