@<TRIPOS>MOLECULE
1,2,3,4,5
 25 25 0 0 0
SMALL
GASTEIGER

@<TRIPOS>ATOM
      1 C          16.0457    0.2543    4.9094 C.2     1  UNL1       -0.0584
      2 C          16.7277    1.4755    4.6968 C.2     1  UNL1       -0.0477
      3 C          17.2539    1.4660    3.3569 C.2     1  UNL1       -0.0477
      4 C          16.9150    0.2333    2.7554 C.2     1  UNL1       -0.0584
      5 C          16.0767   -0.4853    3.6758 C.3     1  UNL1        0.0231
      6 C          15.4168   -0.2604    6.1777 C.3     1  UNL1       -0.0424
      7 C          17.0790    2.5319    5.7129 C.3     1  UNL1       -0.0395
      8 C          18.1670    2.5278    2.8005 C.3     1  UNL1       -0.0395
      9 C          17.3416   -0.2689    1.4012 C.3     1  UNL1       -0.0424
     10 C          15.5548   -1.8924    3.4852 C.3     1  UNL1       -0.0510
     11 H          15.8260   -1.2395    6.4299 H       1  UNL1        0.0275
     12 H          15.6032    0.4141    7.0099 H       1  UNL1        0.0275
     13 H          14.3358   -0.3612    6.0515 H       1  UNL1        0.0275
     14 H          18.1596    2.6805    5.7366 H       1  UNL1        0.0278
     15 H          16.6150    3.4911    5.4687 H       1  UNL1        0.0278
     16 H          16.7546    2.2399    6.7084 H       1  UNL1        0.0278
     17 H          19.1852    2.3930    3.1748 H       1  UNL1        0.0278
     18 H          18.1929    2.4862    1.7130 H       1  UNL1        0.0278
     19 H          17.8246    3.5197    3.1001 H       1  UNL1        0.0278
     20 H          18.2418    0.2435    1.0695 H       1  UNL1        0.0275
     21 H          17.5466   -1.3377    1.4402 H       1  UNL1        0.0275
     22 H          16.5471   -0.0902    0.6707 H       1  UNL1        0.0275
     23 H          16.2822   -2.6296    3.8353 H       1  UNL1        0.0242
     24 H          14.6275   -2.0261    4.0443 H       1  UNL1        0.0242
     25 H          15.3481   -2.0771    2.4304 H       1  UNL1        0.0242
@<TRIPOS>BOND
     1    22     9    1
     2    20     9    1
     3     9    21    1
     4     9     4    1
     5    18     8    1
     6    25    10    1
     7     4     3    2
     8     4     5    1
     9     8    19    1
    10     8    17    1
    11     8     3    1
    12     3     2    1
    13    10     5    1
    14    10    23    1
    15    10    24    1
    16     5     1    1
    17     2     1    2
    18     2     7    1
    19     1     6    1
    20    15     7    1
    21     7    14    1
    22     7    16    1
    23    13     6    1
    24     6    11    1
    25     6    12    1
