@<TRIPOS>MOLECULE
1,2,3,4,5
 25 25 0 0 0
SMALL
GASTEIGER

@<TRIPOS>ATOM
      1 C          14.3388    4.4805    6.0329 C.2     1  UNL1       -0.0584
      2 C          14.9312    5.5683    5.2866 C.2     1  UNL1       -0.0477
      3 C          16.3423    5.5019    5.4542 C.2     1  UNL1       -0.0477
      4 C          16.6472    4.3364    6.2159 C.2     1  UNL1       -0.0584
      5 C          15.4002    3.7274    6.6124 C.3     1  UNL1        0.0231
      6 C          12.8721    4.3568    6.3011 C.3     1  UNL1       -0.0424
      7 C          14.1479    6.6955    4.6917 C.3     1  UNL1       -0.0395
      8 C          17.3171    6.5698    5.0691 C.3     1  UNL1       -0.0395
      9 C          17.9914    4.0089    6.7902 C.3     1  UNL1       -0.0424
     10 C          15.2652    2.6682    7.6638 C.3     1  UNL1       -0.0510
     11 H          12.5468    5.1688    6.9540 H       1  UNL1        0.0275
     12 H          12.3148    4.4227    5.3672 H       1  UNL1        0.0275
     13 H          12.6346    3.4089    6.7776 H       1  UNL1        0.0275
     14 H          13.6193    7.2335    5.4803 H       1  UNL1        0.0278
     15 H          14.7955    7.3925    4.1658 H       1  UNL1        0.0278
     16 H          13.4087    6.3083    3.9900 H       1  UNL1        0.0278
     17 H          17.3023    7.3501    5.8330 H       1  UNL1        0.0278
     18 H          18.3309    6.1820    5.0058 H       1  UNL1        0.0278
     19 H          17.0577    7.0263    4.1166 H       1  UNL1        0.0278
     20 H          18.1948    4.6587    7.6441 H       1  UNL1        0.0275
     21 H          18.0323    2.9783    7.1344 H       1  UNL1        0.0275
     22 H          18.7837    4.1576    6.0585 H       1  UNL1        0.0275
     23 H          15.4000    3.1222    8.6477 H       1  UNL1        0.0242
     24 H          14.2804    2.2081    7.6341 H       1  UNL1        0.0242
     25 H          16.0141    1.8865    7.5488 H       1  UNL1        0.0242
@<TRIPOS>BOND
     1    16     7    1
     2    19     8    1
     3    15     7    1
     4     7     2    1
     5     7    14    1
     6    18     8    1
     7     8     3    1
     8     8    17    1
     9     2     3    1
    10     2     1    2
    11    12     6    1
    12     3     4    2
    13     1     6    1
    14     1     5    1
    15    22     9    1
    16     4     5    1
    17     4     9    1
    18     6    13    1
    19     6    11    1
    20     5    10    1
    21     9    21    1
    22     9    20    1
    23    25    10    1
    24    24    10    1
    25    10    23    1
