@<TRIPOS>MOLECULE
1,3,5,7,9
 10 10 0 0 0
SMALL
GASTEIGER

@<TRIPOS>ATOM
      1 C           2.1903    3.3279    4.7130 C.2     1  UNL1       -0.0654
      2 H           2.7416    4.2556    4.6845 H       1  UNL1        0.0615
      3 C           2.6691    2.1118    5.2413 C.2     1  UNL1       -0.0763
      4 H           3.6429    1.9514    5.6869 H       1  UNL1        0.0578
      5 C           1.5937    1.1934    5.2577 C.3     1  UNL1        0.0054
      6 H           1.6020    0.2300    5.7486 H       1  UNL1        0.0394
      7 C           0.4654    1.8413    4.7120 C.2     1  UNL1       -0.0763
      8 H          -0.5447    1.4538    4.6993 H       1  UNL1        0.0578
      9 C           0.8387    3.1603    4.3820 C.2     1  UNL1       -0.0654
     10 H           0.1680    3.9429    4.0484 H       1  UNL1        0.0615
@<TRIPOS>BOND
     1    10     9    1
     2     9     7    2
     3     9     1    1
     4     2     1    1
     5     8     7    1
     6     7     5    1
     7     1     3    2
     8     3     5    1
     9     3     4    1
    10     5     6    1
