@<TRIPOS>MOLECULE
1,3,5,7,9
 10 10 0 0 0
SMALL
GASTEIGER

@<TRIPOS>ATOM
      1 C           2.2915    2.1364    0.7647 C.3     1  UNL1       -0.0235
      2 H           3.1912    2.5017    0.2887 H       1  UNL1        0.0315
      3 C           1.8719    0.7861    0.7923 C.3     1  UNL1       -0.0127
      4 H           2.4136   -0.0521    0.3723 H       1  UNL1        0.0352
      5 C           0.5538    0.7538    1.2912 C.2     1  UNL1       -0.0837
      6 H          -0.0815   -0.1185    1.3189 H       1  UNL1        0.0572
      7 C           0.1668    2.0668    1.5930 C.2     1  UNL1       -0.0837
      8 H          -0.8245    2.3788    1.8989 H       1  UNL1        0.0572
      9 C           1.2387    2.9254    1.2741 C.3     1  UNL1       -0.0127
     10 H           1.1959    4.0065    1.2689 H       1  UNL1        0.0352
@<TRIPOS>BOND
     1     2     1    1
     2     4     3    1
     3     1     3    1
     4     1     9    1
     5     3     5    1
     6    10     9    1
     7     9     7    1
     8     5     6    1
     9     5     7    2
    10     7     8    1
