@<TRIPOS>MOLECULE
1,3,5,7,9
 10 10 0 0 0
SMALL
GASTEIGER

@<TRIPOS>ATOM
      1 C           5.2735    1.4669    0.8833 C.3     1  UNL1       -0.0127
      2 H           4.2078    1.3582    0.9957 H       1  UNL1        0.0352
      3 C           6.2452    1.1115    1.8466 C.2     1  UNL1       -0.0837
      4 H           6.0420    0.7202    2.8299 H       1  UNL1        0.0572
      5 C           7.5191    1.2818    1.2643 C.2     1  UNL1       -0.0837
      6 H           8.4602    1.0014    1.7086 H       1  UNL1        0.0572
      7 C           7.3378    1.7005   -0.0793 C.3     1  UNL1       -0.0127
      8 H           8.1153    1.7946   -0.8191 H       1  UNL1        0.0352
      9 C           5.9497    1.8138   -0.3132 C.3     1  UNL1       -0.0235
     10 H           5.4827    2.0108   -1.2648 H       1  UNL1        0.0315
@<TRIPOS>BOND
     1    10     9    1
     2     8     7    1
     3     9     7    1
     4     9     1    1
     5     7     5    1
     6     1     2    1
     7     1     3    1
     8     5     6    1
     9     5     3    2
    10     3     4    1
