@<TRIPOS>MOLECULE
1,3,5,7,9
 10 10 0 0 0
SMALL
GASTEIGER

@<TRIPOS>ATOM
      1 C           6.4802   10.6591   10.5532 C.2     1  UNL1       -0.0837
      2 H           7.5583   10.5990   10.6021 H       1  UNL1        0.0572
      3 C           5.7402   11.6971    9.9483 C.3     1  UNL1       -0.0127
      4 H           6.1462   12.5839    9.4786 H       1  UNL1        0.0352
      5 C           4.3830   11.3121    9.9265 C.3     1  UNL1       -0.0235
      6 H           3.5930   11.8450    9.4128 H       1  UNL1        0.0315
      7 C           4.2858   10.0290   10.5167 C.3     1  UNL1       -0.0127
      8 H           3.4105    9.3898   10.5070 H       1  UNL1        0.0352
      9 C           5.5844    9.6295   10.9008 C.2     1  UNL1       -0.0837
     10 H           5.8638    8.6452   11.2596 H       1  UNL1        0.0572
@<TRIPOS>BOND
     1     6     5    1
     2     4     3    1
     3     5     3    1
     4     5     7    1
     5     3     1    1
     6     8     7    1
     7     7     9    1
     8     1     2    1
     9     1     9    2
    10     9    10    1
