@<TRIPOS>MOLECULE
1,3,5,7,9
 10 10 0 0 0
SMALL
GASTEIGER

@<TRIPOS>ATOM
      1 C           3.3356   10.6589   14.1265 C.2     1  UNL1       -0.0654
      2 H           2.2574   10.5988   14.0777 H       1  UNL1        0.0615
      3 C           4.0756   11.6969   14.7315 C.2     1  UNL1       -0.0763
      4 H           3.6697   12.5836   15.2012 H       1  UNL1        0.0578
      5 C           5.4328   11.3118   14.7532 C.3     1  UNL1        0.0054
      6 H           6.2228   11.8446   15.2669 H       1  UNL1        0.0394
      7 C           5.5300   10.0288   14.1628 C.2     1  UNL1       -0.0763
      8 H           6.4053    9.3896   14.1724 H       1  UNL1        0.0578
      9 C           4.2314    9.6293   13.7788 C.2     1  UNL1       -0.0654
     10 H           3.9520    8.6451   13.4199 H       1  UNL1        0.0615
@<TRIPOS>BOND
     1    10     9    1
     2     9     1    1
     3     9     7    2
     4     2     1    1
     5     1     3    2
     6     7     8    1
     7     7     5    1
     8     3     5    1
     9     3     4    1
    10     5     6    1
