@<TRIPOS>MOLECULE
1,15,17,31,33
 34 34 0 0 0
SMALL
GASTEIGER

@<TRIPOS>ATOM
      1 C           2.8461    1.9251    4.9317 C.3     1  UNL1        0.0000
      2 SI          4.5482    1.7811    4.1543 Si      1  UNL1        0.0000
      3 C           4.6531    0.1504    3.1635 C.3     1  UNL1        0.0000
      4 H           5.6427    0.0211    2.7370 H       1  UNL1        0.0000
      5 H           3.9392    0.1368    2.3444 H       1  UNL1        0.0000
      6 H           4.4548   -0.7116    3.7927 H       1  UNL1        0.0000
      7 C           5.8994    1.8216    5.5062 C.3     1  UNL1        0.0000
      8 H           6.8865    1.7225    5.0671 H       1  UNL1        0.0000
      9 H           5.7737    1.0132    6.2190 H       1  UNL1        0.0000
     10 H           5.8796    2.7556    6.0594 H       1  UNL1        0.0000
     11 C           4.7986    3.2620    2.9711 C.3     1  UNL1        0.0000
     12 H           5.6444    3.1093    2.3067 H       1  UNL1        0.0000
     13 H           4.9874    4.1749    3.5319 H       1  UNL1        0.0000
     14 H           3.9135    3.4219    2.3532 H       1  UNL1        0.0000
     15 C           2.4228    2.7963    5.9687 C.3     1  UNL1        0.0000
     16 H           3.0788    3.4509    6.5329 H       1  UNL1        0.0000
     17 C           1.0543    2.5522    6.2617 C.3     1  UNL1        0.0000
     18 SI          0.1137    3.0574    7.8078 Si      1  UNL1        0.0000
     19 C           0.8347    2.0758    9.2835 C.3     1  UNL1        0.0000
     20 H           0.3005    2.2982   10.2019 H       1  UNL1        0.0000
     21 H           1.8807    2.3182    9.4443 H       1  UNL1        0.0000
     22 H           0.7717    1.0051    9.1160 H       1  UNL1        0.0000
     23 C          -1.7360    2.6028    7.6239 C.3     1  UNL1        0.0000
     24 H          -2.1989    3.0811    6.7659 H       1  UNL1        0.0000
     25 H          -2.2914    2.9098    8.5045 H       1  UNL1        0.0000
     26 H          -1.8700    1.5308    7.5175 H       1  UNL1        0.0000
     27 C           0.2450    4.9170    8.2390 C.3     1  UNL1        0.0000
     28 H          -0.2790    5.1179    9.1686 H       1  UNL1        0.0000
     29 H          -0.1871    5.5631    7.4796 H       1  UNL1        0.0000
     30 H           1.2783    5.2160    8.3824 H       1  UNL1        0.0000
     31 C           0.6377    1.5018    5.3896 C.2     1  UNL1        0.0000
     32 H          -0.3191    0.9953    5.4419 H       1  UNL1        0.0000
     33 C           1.7222    1.1187    4.5922 C.2     1  UNL1        0.0000
     34 H           1.7565    0.2655    3.9266 H       1  UNL1        0.0000
@<TRIPOS>BOND
     1    12    11    1
     2     5     3    1
     3    14    11    1
     4     4     3    1
     5    11    13    1
     6    11     2    1
     7     3     6    1
     8     3     2    1
     9    34    33    1
    10     2     1    1
    11     2     7    1
    12    33     1    1
    13    33    31    2
    14     1    15    1
    15     8     7    1
    16    31    32    1
    17    31    17    1
    18     7    10    1
    19     7     9    1
    20    15    17    1
    21    15    16    1
    22    17    18    1
    23    24    23    1
    24    29    27    1
    25    26    23    1
    26    23    18    1
    27    23    25    1
    28    18    27    1
    29    18    19    1
    30    27    30    1
    31    27    28    1
    32    22    19    1
    33    19    21    1
    34    19    20    1
