@<TRIPOS>MOLECULE
1,2,3,4,5
 25 25 0 0 0
SMALL
GASTEIGER

@<TRIPOS>ATOM
      1 C           0.4498    2.1105    7.2095 C.2     1  UNL1       -0.0477
      2 C           1.4627    2.7787    6.4316 C.2     1  UNL1       -0.0584
      3 C           2.0973    1.8103    5.6204 C.3     1  UNL1        0.0231
      4 C           1.4987    0.5304    5.9065 C.2     1  UNL1       -0.0584
      5 C           0.4913    0.7197    6.8754 C.2     1  UNL1       -0.0477
      6 C          -0.1614    2.6427    8.4703 C.3     1  UNL1       -0.0395
      7 H          -0.3887    3.7019    8.3943 H       1  UNL1        0.0278
      8 H           0.5463    2.5059    9.2928 H       1  UNL1        0.0278
      9 H          -1.0746    2.1093    8.7200 H       1  UNL1        0.0278
     10 C           1.9504    4.1805    6.6469 C.3     1  UNL1       -0.0424
     11 H           2.2580    4.6405    5.7087 H       1  UNL1        0.0275
     12 H           2.8128    4.1746    7.3187 H       1  UNL1        0.0275
     13 H           1.1770    4.8006    7.0911 H       1  UNL1        0.0275
     14 C           3.3684    2.0260    4.8520 C.3     1  UNL1       -0.0510
     15 H           4.2287    1.9470    5.5221 H       1  UNL1        0.0242
     16 H           3.3891    3.0173    4.4002 H       1  UNL1        0.0242
     17 H           3.4927    1.2857    4.0620 H       1  UNL1        0.0242
     18 C           2.0420   -0.7946    5.4605 C.3     1  UNL1       -0.0424
     19 H           2.7864   -1.1445    6.1805 H       1  UNL1        0.0275
     20 H           2.5280   -0.7270    4.4873 H       1  UNL1        0.0275
     21 H           1.2591   -1.5497    5.3986 H       1  UNL1        0.0275
     22 C          -0.2781   -0.3549    7.5861 C.3     1  UNL1       -0.0395
     23 H          -0.3312   -1.2642    6.9898 H       1  UNL1        0.0278
     24 H          -1.2952   -0.0296    7.7998 H       1  UNL1        0.0278
     25 H           0.2059   -0.6005    8.5348 H       1  UNL1        0.0278
@<TRIPOS>BOND
     1    17    14    1
     2    16    14    1
     3    20    18    1
     4    14    15    1
     5    14     3    1
     6    21    18    1
     7    18     4    1
     8    18    19    1
     9     3     4    1
    10     3     2    1
    11    11    10    1
    12     4     5    2
    13     2    10    1
    14     2     1    2
    15    10    13    1
    16    10    12    1
    17     5     1    1
    18     5    22    1
    19    23    22    1
    20     1     6    1
    21    22    24    1
    22    22    25    1
    23     7     6    1
    24     6     9    1
    25     6     8    1
