@<TRIPOS>MOLECULE
1,2,3,4,5
 25 25 0 0 0
SMALL
GASTEIGER

@<TRIPOS>ATOM
      1 C           3.5725    2.8365    6.6417 C.2     1  UNL1       -0.0477
      2 C           4.9823    2.5569    6.7838 C.2     1  UNL1       -0.0584
      3 C           5.2230    1.2606    6.2746 C.3     1  UNL1        0.0231
      4 C           3.9611    0.7133    5.8460 C.2     1  UNL1       -0.0584
      5 C           2.9556    1.6737    6.0835 C.2     1  UNL1       -0.0477
      6 C           2.8350    3.9274    7.3596 C.3     1  UNL1       -0.0395
      7 H           2.4761    3.5478    8.3198 H       1  UNL1        0.0278
      8 H           1.9785    4.2798    6.7885 H       1  UNL1        0.0278
      9 H           3.4826    4.7790    7.5498 H       1  UNL1        0.0278
     10 C           5.9550    3.3335    7.6197 C.3     1  UNL1       -0.0424
     11 H           5.6433    4.3672    7.7386 H       1  UNL1        0.0275
     12 H           6.9507    3.3295    7.1789 H       1  UNL1        0.0275
     13 H           6.0247    2.8800    8.6121 H       1  UNL1        0.0275
     14 C           6.4913    0.4814    6.4663 C.3     1  UNL1       -0.0510
     15 H           7.3662    1.1184    6.3396 H       1  UNL1        0.0242
     16 H           6.5644   -0.3489    5.7642 H       1  UNL1        0.0242
     17 H           6.5252    0.0677    7.4779 H       1  UNL1        0.0242
     18 C           3.7016   -0.7229    5.5012 C.3     1  UNL1       -0.0424
     19 H           3.4572   -1.2764    6.4119 H       1  UNL1        0.0275
     20 H           4.5709   -1.1984    5.0475 H       1  UNL1        0.0275
     21 H           2.8590   -0.8217    4.8175 H       1  UNL1        0.0275
     22 C           1.4807    1.4030    5.9968 C.3     1  UNL1       -0.0395
     23 H           1.1927    1.0245    5.0153 H       1  UNL1        0.0278
     24 H           0.9056    2.3026    6.2003 H       1  UNL1        0.0278
     25 H           1.2029    0.6490    6.7378 H       1  UNL1        0.0278
@<TRIPOS>BOND
     1    21    18    1
     2    23    22    1
     3    20    18    1
     4    18     4    1
     5    18    19    1
     6    16    14    1
     7     4     5    2
     8     4     3    1
     9    22     5    1
    10    22    24    1
    11    22    25    1
    12     5     1    1
    13     3    14    1
    14     3     2    1
    15    15    14    1
    16    14    17    1
    17     1     2    2
    18     1     6    1
    19     2    10    1
    20     8     6    1
    21    12    10    1
    22     6     9    1
    23     6     7    1
    24    10    11    1
    25    10    13    1
