@<TRIPOS>MOLECULE
1,3,5,7,9
 10 10 0 0 0
SMALL
GASTEIGER

@<TRIPOS>ATOM
      1 C           1.9796    2.3366    1.8609 C.2     1  UNL1       -0.0654
      2 H           2.0583    3.2073    2.4983 H       1  UNL1        0.0615
      3 C           3.0542    1.6370    1.3040 C.2     1  UNL1       -0.0763
      4 H           4.0999    1.8954    1.3894 H       1  UNL1        0.0578
      5 C           2.5116    0.6270    0.4438 C.3     1  UNL1        0.0054
      6 H           3.0759    0.1091   -0.3263 H       1  UNL1        0.0394
      7 C           1.0851    0.7741    0.4486 C.2     1  UNL1       -0.0763
      8 H           0.4017    0.2894   -0.2318 H       1  UNL1        0.0578
      9 C           0.7743    1.8041    1.3418 C.2     1  UNL1       -0.0654
     10 H          -0.2125    2.2123    1.5126 H       1  UNL1        0.0615
@<TRIPOS>BOND
     1     6     5    1
     2     8     7    1
     3     5     7    1
     4     5     3    1
     5     7     9    2
     6     3     4    1
     7     3     1    2
     8     9    10    1
     9     9     1    1
    10     1     2    1
