@<TRIPOS>MOLECULE
1,3,5,7,9
 10 10 0 0 0
SMALL
GASTEIGER

@<TRIPOS>ATOM
      1 C           3.4126   11.5708    3.0570 C.2     1  UNL1       -0.0837
      2 H           2.4728   11.9915    3.3829 H       1  UNL1        0.0572
      3 C           4.3282   10.8820    3.8653 C.2     1  UNL1       -0.0837
      4 H           4.2137   10.6933    4.9224 H       1  UNL1        0.0572
      5 C           5.5176   10.6852    3.1075 C.3     1  UNL1       -0.0127
      6 H           6.4769   10.4156    3.5283 H       1  UNL1        0.0352
      7 C           5.3153   11.2177    1.8077 C.3     1  UNL1       -0.0235
      8 H           6.0729   11.3867    1.0584 H       1  UNL1        0.0315
      9 C           3.9947   11.7436    1.7782 C.3     1  UNL1       -0.0127
     10 H           3.5791   12.3531    0.9833 H       1  UNL1        0.0352
@<TRIPOS>BOND
     1    10     9    1
     2     8     7    1
     3     9     7    1
     4     9     1    1
     5     7     5    1
     6     1     2    1
     7     1     3    2
     8     5     6    1
     9     5     3    1
    10     3     4    1
