@<TRIPOS>MOLECULE
1,3,5,7,9
 10 10 0 0 0
SMALL
GASTEIGER

@<TRIPOS>ATOM
      1 C          11.3073    9.3392   21.6885 C.2     1  UNL1       -0.0654
      2 H          11.6084   10.0018   20.8889 H       1  UNL1        0.0615
      3 C          11.7569    9.4030   23.0117 C.2     1  UNL1       -0.0763
      4 H          12.5124   10.0739   23.3930 H       1  UNL1        0.0578
      5 C          11.2051    8.2761   23.7050 C.3     1  UNL1        0.0054
      6 H          11.5783    7.8790   24.6427 H       1  UNL1        0.0394
      7 C          10.4654    7.5002   22.7529 C.2     1  UNL1       -0.0763
      8 H          10.0702    6.5089   22.9223 H       1  UNL1        0.0578
      9 C          10.5250    8.1708   21.5279 C.2     1  UNL1       -0.0654
     10 H          10.1303    7.8021   20.5908 H       1  UNL1        0.0615
@<TRIPOS>BOND
     1    10     9    1
     2     2     1    1
     3     9     1    1
     4     9     7    2
     5     1     3    2
     6     7     8    1
     7     7     5    1
     8     3     4    1
     9     3     5    1
    10     5     6    1
