@<TRIPOS>MOLECULE
1,3,5,7,9
 10 10 0 0 0
SMALL
GASTEIGER

@<TRIPOS>ATOM
      1 C           3.3700    7.1348    2.6199 C.2     1  UNL1       -0.0837
      2 H           2.4236    6.6908    2.8910 H       1  UNL1        0.0572
      3 C           4.3434    7.6010    3.5128 C.2     1  UNL1       -0.0837
      4 H           4.2745    7.5707    4.5902 H       1  UNL1        0.0572
      5 C           5.5119    7.9143    2.7622 C.3     1  UNL1       -0.0127
      6 H           6.4950    8.0657    3.1868 H       1  UNL1        0.0352
      7 C           5.2429    7.6786    1.3917 C.3     1  UNL1       -0.0235
      8 H           5.9658    7.6472    0.5915 H       1  UNL1        0.0315
      9 C           3.8974    7.2207    1.3074 C.3     1  UNL1       -0.0127
     10 H           3.4326    6.8001    0.4221 H       1  UNL1        0.0352
@<TRIPOS>BOND
     1    10     9    1
     2     8     7    1
     3     9     7    1
     4     9     1    1
     5     7     5    1
     6     1     2    1
     7     1     3    2
     8     5     6    1
     9     5     3    1
    10     3     4    1
