@<TRIPOS>MOLECULE
1,3,5,7,9
 10 10 0 0 0
SMALL
GASTEIGER

@<TRIPOS>ATOM
      1 C           8.5949   10.3012   21.1591 C.3     1  UNL1        0.0054
      2 H           8.9040   10.0561   20.1505 H       1  UNL1        0.0394
      3 C           8.9794   11.4682   21.8690 C.2     1  UNL1       -0.0763
      4 H           9.6698   12.2223   21.5209 H       1  UNL1        0.0578
      5 C           8.1373   11.5894   22.9864 C.2     1  UNL1       -0.0654
      6 H           8.0632   12.4471   23.6389 H       1  UNL1        0.0615
      7 C           7.2709   10.4693   23.0065 C.2     1  UNL1       -0.0654
      8 H           6.4260   10.3541   23.6737 H       1  UNL1        0.0615
      9 C           7.5326    9.6762   21.8627 C.2     1  UNL1       -0.0763
     10 H           6.9131    8.8695   21.4989 H       1  UNL1        0.0578
@<TRIPOS>BOND
     1     2     1    1
     2     1     9    1
     3     1     3    1
     4    10     9    1
     5     4     3    1
     6     9     7    2
     7     3     5    2
     8     5     7    1
     9     5     6    1
    10     7     8    1
