@<TRIPOS>MOLECULE
1,3,5,7,9
 10 10 0 0 0
SMALL
GASTEIGER

@<TRIPOS>ATOM
      1 C           1.9134    0.6299    4.7569 C.2     1  UNL1       -0.0763
      2 H           2.6326    1.2491    5.2727 H       1  UNL1        0.0578
      3 C           1.9003   -0.7824    4.7422 C.2     1  UNL1       -0.0654
      4 H           2.6279   -1.4284    5.2160 H       1  UNL1        0.0615
      5 C           0.6712   -1.2175    4.1913 C.2     1  UNL1       -0.0654
      6 H           0.3124   -2.2355    4.2055 H       1  UNL1        0.0615
      7 C          -0.0714   -0.0782    3.8214 C.2     1  UNL1       -0.0763
      8 H          -1.1015   -0.0798    3.4960 H       1  UNL1        0.0578
      9 C           0.6859    1.0661    4.1870 C.3     1  UNL1        0.0054
     10 H           0.3034    2.0790    4.2351 H       1  UNL1        0.0394
@<TRIPOS>BOND
     1     8     7    1
     2     7     9    1
     3     7     5    2
     4     9    10    1
     5     9     1    1
     6     5     6    1
     7     5     3    1
     8     3     1    2
     9     3     4    1
    10     1     2    1
