@<TRIPOS>MOLECULE
2,3,4,5,6
 32 33 0 0 0
SMALL
GASTEIGER

@<TRIPOS>ATOM
      1 SI         -3.2936    2.2286    3.0908 Si      1  UNL1        0.0000
      2 C          -1.6350    2.8931    3.6548 C.3     1  UNL1        0.0000
      3 C          -0.5906    3.3769    2.8207 C.2     1  UNL1        0.0000
      4 C           0.3885    3.9828    3.6250 C.2     1  UNL1        0.0000
      5 C          -0.0388    3.8960    4.9715 C.2     1  UNL1        0.0000
      6 C          -1.2738    3.2277    4.9908 C.2     1  UNL1        0.0000
      7 C          -3.5494    0.4339    3.7117 C.3     1  UNL1        0.0000
      8 C          -3.4309    2.2849    1.1872 C.3     1  UNL1        0.0000
      9 C          -4.6897    3.3317    3.8308 C.3     1  UNL1        0.0000
     10 C          -4.6511    4.6941    3.2243 C.ar    1  UNL1        0.0000
     11 C          -3.7153    5.6310    3.6498 C.ar    1  UNL1        0.0000
     12 C          -3.6503    6.8814    3.0645 C.ar    1  UNL1        0.0000
     13 C          -4.5196    7.2180    2.0403 C.ar    1  UNL1        0.0000
     14 C          -5.4531    6.2925    1.6065 C.ar    1  UNL1        0.0000
     15 C          -5.5148    5.0410    2.1927 C.ar    1  UNL1        0.0000
     16 H          -0.6245    3.4035    1.7384 H       1  UNL1        0.0000
     17 H           1.2452    4.5423    3.2704 H       1  UNL1        0.0000
     18 H           0.4393    4.3729    5.8182 H       1  UNL1        0.0000
     19 H          -1.9070    3.1003    5.8622 H       1  UNL1        0.0000
     20 H          -2.6825   -0.1816    3.4791 H       1  UNL1        0.0000
     21 H          -3.7085    0.4022    4.7863 H       1  UNL1        0.0000
     22 H          -4.4166   -0.0242    3.2465 H       1  UNL1        0.0000
     23 H          -3.3165    3.3013    0.8236 H       1  UNL1        0.0000
     24 H          -2.6836    1.6671    0.6985 H       1  UNL1        0.0000
     25 H          -4.4047    1.9323    0.8631 H       1  UNL1        0.0000
     26 H          -4.5599    3.4049    4.9100 H       1  UNL1        0.0000
     27 H          -5.6581    2.8689    3.6473 H       1  UNL1        0.0000
     28 H          -3.0310    5.3731    4.4445 H       1  UNL1        0.0000
     29 H          -2.9173    7.5968    3.4083 H       1  UNL1        0.0000
     30 H          -4.4706    8.1957    1.5838 H       1  UNL1        0.0000
     31 H          -6.1363    6.5468    0.8086 H       1  UNL1        0.0000
     32 H          -6.2457    4.3225    1.8484 H       1  UNL1        0.0000
@<TRIPOS>BOND
     1    24     8    1
     2    31    14    1
     3    23     8    1
     4    25     8    1
     5     8     1    1
     6    30    13    1
     7    14    13   ar
     8    14    15   ar
     9    16     3    1
    10    32    15    1
    11    13    12   ar
    12    15    10   ar
    13     3     4    2
    14     3     2    1
    15    12    29    1
    16    12    11   ar
    17     1     2    1
    18     1     7    1
    19     1     9    1
    20    10    11   ar
    21    10     9    1
    22    22     7    1
    23    17     4    1
    24    20     7    1
    25     4     5    1
    26    27     9    1
    27    11    28    1
    28     2     6    1
    29     7    21    1
    30     9    26    1
    31     5     6    2
    32     5    18    1
    33     6    19    1
