@<TRIPOS>MOLECULE
1,3,5,7,9
 10 10 0 0 0
SMALL
GASTEIGER

@<TRIPOS>ATOM
      1 C          -0.4673    0.6147    1.6938 C.2     1  UNL1       -0.0654
      2 H          -0.1903    1.2581    0.8712 H       1  UNL1        0.0615
      3 C          -1.5204    0.8377    2.6020 C.2     1  UNL1       -0.0654
      4 H          -2.1802    1.6940    2.6206 H       1  UNL1        0.0615
      5 C          -1.6491   -0.3075    3.4123 C.2     1  UNL1       -0.0763
      6 H          -2.4547   -0.4943    4.1091 H       1  UNL1        0.0578
      7 C          -0.6788   -1.2500    2.9963 C.3     1  UNL1        0.0054
      8 H          -0.6242   -2.2805    3.3212 H       1  UNL1        0.0394
      9 C           0.0495   -0.6767    1.9304 C.2     1  UNL1       -0.0763
     10 H           0.7527   -1.1974    1.2949 H       1  UNL1        0.0578
@<TRIPOS>BOND
     1     2     1    1
     2    10     9    1
     3     1     9    2
     4     1     3    1
     5     9     7    1
     6     3     4    1
     7     3     5    2
     8     7     8    1
     9     7     5    1
    10     5     6    1
