@<TRIPOS>MOLECULE
1,2,3,15,16
 25 25 0 0 0
SMALL
GASTEIGER

@<TRIPOS>ATOM
      1 C           9.0002   14.1332    8.1507 C.3     1  UNL1        0.0052
      2 C           9.8288   13.6980    7.0723 C.3     1  UNL1       -0.0053
      3 C          10.3108   14.8529    6.3920 C.3     1  UNL1        0.0052
      4 C           8.5177   13.2942    9.3009 C.3     1  UNL1       -0.0545
      5 C          10.2908   12.2824    6.8682 C.3     1  UNL1       -0.0574
      6 C          11.3259   14.8558    5.2844 C.3     1  UNL1       -0.0545
      7 H           9.1866   13.4239   10.1557 H       1  UNL1        0.0239
      8 H           8.5004   12.2392    9.0403 H       1  UNL1        0.0239
      9 H           7.5165   13.5907    9.6137 H       1  UNL1        0.0239
     10 H           9.4531   11.5861    6.8518 H       1  UNL1        0.0236
     11 H          10.9572   11.9953    7.6849 H       1  UNL1        0.0236
     12 H          10.8420   12.1753    5.9364 H       1  UNL1        0.0236
     13 H          11.2287   13.9729    4.6536 H       1  UNL1        0.0239
     14 H          12.3367   14.8628    5.6995 H       1  UNL1        0.0239
     15 C           9.0022   15.5701    8.1534 C.2     1  UNL1       -0.0658
     16 C           9.8257   16.0074    7.0751 C.2     1  UNL1       -0.0658
     17 C           8.5141   16.4070    9.3023 C.3     1  UNL1       -0.0430
     18 H           9.1800   16.2773   10.1594 H       1  UNL1        0.0275
     19 H           8.4964   17.4620    9.0422 H       1  UNL1        0.0275
     20 H           7.5122   16.1089    9.6110 H       1  UNL1        0.0275
     21 H          11.2186   15.7343    4.6489 H       1  UNL1        0.0239
     22 C          10.2872   17.4231    6.8727 C.3     1  UNL1       -0.0430
     23 H           9.4488   18.1183    6.8536 H       1  UNL1        0.0275
     24 H          10.9505   17.7105    7.6917 H       1  UNL1        0.0275
     25 H          10.8413   17.5307    5.9429 H       1  UNL1        0.0275
@<TRIPOS>BOND
     1    21     6    1
     2    13     6    1
     3     6    14    1
     4     6     3    1
     5    12     5    1
     6    25    22    1
     7     3     2    1
     8     3    16    1
     9    10     5    1
    10    23    22    1
    11     5     2    1
    12     5    11    1
    13    22    16    1
    14    22    24    1
    15     2     1    1
    16    16    15    2
    17     1    15    1
    18     1     4    1
    19    15    17    1
    20     8     4    1
    21    19    17    1
    22     4     9    1
    23     4     7    1
    24    17    20    1
    25    17    18    1
