@<TRIPOS>MOLECULE
2,3,4,5,6
 43 46 0 0 0
SMALL
GASTEIGER

@<TRIPOS>ATOM
      1 SI          3.1872    5.6379   13.1486 Si      1  UNL1        0.0000
      2 C           2.5346    5.2320   11.4118 C.2     1  UNL1        0.0000
      3 C           2.8970    5.8415   10.1954 C.2     1  UNL1        0.0000
      4 C           2.4084    5.0642    9.1131 C.2     1  UNL1        0.0000
      5 C           1.7403    3.9477    9.6380 C.2     1  UNL1        0.0000
      6 C           1.7639    4.0664   11.0641 C.3     1  UNL1        0.0000
      7 C           3.8399    7.4155   13.1345 C.ar    1  UNL1        0.0000
      8 C           5.0158    7.6939   12.4383 C.ar    1  UNL1        0.0000
      9 C           5.5548    8.9668   12.4250 C.ar    1  UNL1        0.0000
     10 C           4.9226    9.9936   13.1078 C.ar    1  UNL1        0.0000
     11 C           3.7571    9.7348   13.8088 C.ar    1  UNL1        0.0000
     12 C           3.2263    8.4566   13.8253 C.ar    1  UNL1        0.0000
     13 C           4.6372    4.4618   13.4452 C.ar    1  UNL1        0.0000
     14 C           5.5005    4.7207   14.5073 C.ar    1  UNL1        0.0000
     15 C           6.5707    3.8882   14.7756 C.ar    1  UNL1        0.0000
     16 C           6.7989    2.7763   13.9812 C.ar    1  UNL1        0.0000
     17 C           5.9529    2.5058   12.9192 C.ar    1  UNL1        0.0000
     18 C           4.8831    3.3424   12.6557 C.ar    1  UNL1        0.0000
     19 C           1.7900    5.3011   14.3848 C.ar    1  UNL1        0.0000
     20 C           0.6464    6.0955   14.4428 C.ar    1  UNL1        0.0000
     21 C          -0.3763    5.8152   15.3309 C.ar    1  UNL1        0.0000
     22 C          -0.2741    4.7296   16.1847 C.ar    1  UNL1        0.0000
     23 C           0.8570    3.9320   16.1462 C.ar    1  UNL1        0.0000
     24 C           1.8768    4.2174   15.2561 C.ar    1  UNL1        0.0000
     25 H           3.5417    6.7005   10.1013 H       1  UNL1        0.0000
     26 H           2.6229    5.2427    8.0703 H       1  UNL1        0.0000
     27 H           1.4050    3.0880    9.0796 H       1  UNL1        0.0000
     28 H           1.5050    3.2850   11.7671 H       1  UNL1        0.0000
     29 H           5.5236    6.8952   11.9149 H       1  UNL1        0.0000
     30 H           6.4731    9.1571   11.8887 H       1  UNL1        0.0000
     31 H           5.3422   10.9886   13.1025 H       1  UNL1        0.0000
     32 H           3.2660   10.5285   14.3523 H       1  UNL1        0.0000
     33 H           2.3305    8.2619   14.3959 H       1  UNL1        0.0000
     34 H           5.3265    5.5886   15.1273 H       1  UNL1        0.0000
     35 H           7.2287    4.1058   15.6036 H       1  UNL1        0.0000
     36 H           7.6341    2.1244   14.1876 H       1  UNL1        0.0000
     37 H           6.1278    1.6416   12.2950 H       1  UNL1        0.0000
     38 H           4.2322    3.1216   11.8209 H       1  UNL1        0.0000
     39 H           0.5533    6.9467   13.7837 H       1  UNL1        0.0000
     40 H          -1.2523    6.4464   15.3600 H       1  UNL1        0.0000
     41 H          -1.0696    4.5103   16.8805 H       1  UNL1        0.0000
     42 H           0.9465    3.0881   16.8138 H       1  UNL1        0.0000
     43 H           2.7585    3.5930   15.2369 H       1  UNL1        0.0000
@<TRIPOS>BOND
     1    26     4    1
     2    27     5    1
     3     4     5    2
     4     4     3    1
     5     5     6    1
     6    25     3    1
     7     3     2    2
     8     6     2    1
     9     6    28    1
    10     2     1    1
    11    38    18    1
    12    30     9    1
    13    29     8    1
    14    37    17    1
    15     9     8   ar
    16     9    10   ar
    17     8     7   ar
    18    18    17   ar
    19    18    13   ar
    20    17    16   ar
    21    31    10    1
    22    10    11   ar
    23     7     1    1
    24     7    12   ar
    25     1    13    1
    26     1    19    1
    27    13    14   ar
    28    39    20    1
    29    11    12   ar
    30    11    32    1
    31    12    33    1
    32    16    36    1
    33    16    15   ar
    34    19    20   ar
    35    19    24   ar
    36    20    21   ar
    37    14    15   ar
    38    14    34    1
    39    15    35    1
    40    43    24    1
    41    24    23   ar
    42    21    40    1
    43    21    22   ar
    44    23    22   ar
    45    23    42    1
    46    22    41    1
