@<TRIPOS>MOLECULE
2,3,4,5,6
 43 46 0 0 0
SMALL
GASTEIGER

@<TRIPOS>ATOM
      1 SI          8.3830    7.9070   12.7672 Si      1  UNL1        0.0000
      2 C           7.6573    6.4707   11.7951 C.3     1  UNL1        0.0000
      3 C           7.7782    5.1132   12.2205 C.2     1  UNL1        0.0000
      4 C           6.8914    4.3195   11.4676 C.2     1  UNL1        0.0000
      5 C           6.2274    5.1653   10.5486 C.3     1  UNL1        0.0000
      6 C           6.6937    6.4837   10.7469 C.3     1  UNL1        0.0000
      7 C          10.0215    7.2896   13.5087 C.ar    1  UNL1        0.0000
      8 C          11.1450    7.0813   12.7127 C.ar    1  UNL1        0.0000
      9 C          12.3089    6.5518   13.2412 C.ar    1  UNL1        0.0000
     10 C          12.3717    6.2177   14.5836 C.ar    1  UNL1        0.0000
     11 C          11.2668    6.4244   15.3921 C.ar    1  UNL1        0.0000
     12 C          10.1067    6.9555   14.8569 C.ar    1  UNL1        0.0000
     13 C           7.1905    8.2942   14.1937 C.ar    1  UNL1        0.0000
     14 C           7.2507    9.5319   14.8266 C.ar    1  UNL1        0.0000
     15 C           6.4146    9.8351   15.8852 C.ar    1  UNL1        0.0000
     16 C           5.4961    8.8993   16.3317 C.ar    1  UNL1        0.0000
     17 C           5.4202    7.6635   15.7121 C.ar    1  UNL1        0.0000
     18 C           6.2610    7.3680   14.6540 C.ar    1  UNL1        0.0000
     19 C           8.5946    9.5045   11.7741 C.ar    1  UNL1        0.0000
     20 C           7.4926   10.0735   11.1427 C.ar    1  UNL1        0.0000
     21 C           7.6093   11.2402   10.4114 C.ar    1  UNL1        0.0000
     22 C           8.8387   11.8685   10.3043 C.ar    1  UNL1        0.0000
     23 C           9.9428   11.3269   10.9402 C.ar    1  UNL1        0.0000
     24 C           9.8186   10.1570   11.6680 C.ar    1  UNL1        0.0000
     25 H           8.3371    4.7973   13.0908 H       1  UNL1        0.0000
     26 H           6.6481    3.2832   11.6575 H       1  UNL1        0.0000
     27 H           5.4055    4.8786    9.9070 H       1  UNL1        0.0000
     28 H           6.2873    7.3680   10.2771 H       1  UNL1        0.0000
     29 H          11.1037    7.3267   11.6611 H       1  UNL1        0.0000
     30 H          13.1695    6.3972   12.6051 H       1  UNL1        0.0000
     31 H          13.2780    5.7996   14.9982 H       1  UNL1        0.0000
     32 H          11.3090    6.1688   16.4417 H       1  UNL1        0.0000
     33 H           9.2478    7.1135   15.4947 H       1  UNL1        0.0000
     34 H           7.9640   10.2660   14.4786 H       1  UNL1        0.0000
     35 H           6.4771   10.8021   16.3641 H       1  UNL1        0.0000
     36 H           4.8409    9.1331   17.1586 H       1  UNL1        0.0000
     37 H           4.7039    6.9299   16.0551 H       1  UNL1        0.0000
     38 H           6.1939    6.4004   14.1759 H       1  UNL1        0.0000
     39 H           6.5259    9.5983   11.2337 H       1  UNL1        0.0000
     40 H           6.7420   11.6617    9.9232 H       1  UNL1        0.0000
     41 H           8.9345   12.7794    9.7307 H       1  UNL1        0.0000
     42 H          10.9037   11.8171   10.8672 H       1  UNL1        0.0000
     43 H          10.6859    9.7441   12.1639 H       1  UNL1        0.0000
@<TRIPOS>BOND
     1    41    22    1
     2    27     5    1
     3    40    21    1
     4    28     6    1
     5    22    21   ar
     6    22    23   ar
     7    21    20   ar
     8     5     6    1
     9     5     4    1
    10     6     2    1
    11    42    23    1
    12    23    24   ar
    13    20    39    1
    14    20    19   ar
    15     4    26    1
    16     4     3    2
    17    29     8    1
    18    24    19   ar
    19    24    43    1
    20    19     1    1
    21     2     3    1
    22     2     1    1
    23     3    25    1
    24    30     9    1
    25     8     9   ar
    26     8     7   ar
    27     1     7    1
    28     1    13    1
    29     9    10   ar
    30     7    12   ar
    31    38    18    1
    32    13    18   ar
    33    13    14   ar
    34    34    14    1
    35    10    31    1
    36    10    11   ar
    37    18    17   ar
    38    14    15   ar
    39    12    11   ar
    40    12    33    1
    41    11    32    1
    42    17    37    1
    43    17    16   ar
    44    15    16   ar
    45    15    35    1
    46    16    36    1
