@<TRIPOS>MOLECULE
1,2,3,4,5
 10 10 0 0 0
SMALL
GASTEIGER

@<TRIPOS>ATOM
      1 C          -0.6319    3.3746    1.5120 C.3     1  UNL1       -0.0235
      2 C          -1.3851    3.3205    2.7049 C.3     1  UNL1       -0.0127
      3 C          -1.5666    1.9653    3.0449 C.2     1  UNL1       -0.0837
      4 C          -0.9466    1.1801    2.0565 C.2     1  UNL1       -0.0837
      5 C          -0.3613    2.0474    1.1117 C.3     1  UNL1       -0.0127
      6 H          -0.4765    4.2564    0.9066 H       1  UNL1        0.0315
      7 H          -1.8739    4.1625    3.1797 H       1  UNL1        0.0352
      8 H           0.0592    1.7557    0.1580 H       1  UNL1        0.0352
      9 H          -1.0193    0.1037    1.9767 H       1  UNL1        0.0572
     10 H          -2.1945    1.5832    3.8400 H       1  UNL1        0.0572
@<TRIPOS>BOND
     1     8     5    1
     2     6     1    1
     3     5     1    1
     4     5     4    1
     5     1     2    1
     6     9     4    1
     7     4     3    2
     8     2     3    1
     9     2     7    1
    10     3    10    1
