@<TRIPOS>MOLECULE
2,3,4,5,6
 13 13 0 0 0
SMALL
GASTEIGER

@<TRIPOS>ATOM
      1 C           3.0759    1.9379    6.3740 C.3     1  UNL1       -0.0426
      2 C           1.6045    2.1037    6.0335 C.3     1  UNL1       -0.0164
      3 C           1.1261    3.4186    6.3254 C.2     1  UNL1       -0.0840
      4 C           2.0390    4.4873    6.3223 C.2     1  UNL1       -0.0837
      5 C           3.3152    4.3004    5.7702 C.3     1  UNL1       -0.0133
      6 C           3.7428    2.9658    5.4740 C.3     1  UNL1       -0.0303
      7 H           3.2772    2.1334    7.4466 H       1  UNL1        0.0274
      8 H           3.4226    0.9259    6.1507 H       1  UNL1        0.0274
      9 H           0.9518    1.2751    6.3146 H       1  UNL1        0.0349
     10 H           0.1051    3.5797    6.6705 H       1  UNL1        0.0572
     11 H           1.7367    5.4662    6.6844 H       1  UNL1        0.0572
     12 H           3.9974    5.1448    5.6904 H       1  UNL1        0.0351
     13 H           4.8167    2.8337    5.3148 H       1  UNL1        0.0310
@<TRIPOS>BOND
     1    13     6    1
     2     6     5    1
     3     6     1    1
     4    12     5    1
     5     5     4    1
     6     2     9    1
     7     2     3    1
     8     2     1    1
     9     8     1    1
    10     4     3    2
    11     4    11    1
    12     3    10    1
    13     1     7    1
