@<TRIPOS>MOLECULE
1,2,3,4,5
 16 16 0 0 0
SMALL
GASTEIGER

@<TRIPOS>ATOM
      1 C           8.1624    7.8523   10.8109 C.3     1  UNL1       -0.0135
      2 C           7.8910    7.7335    9.4165 C.2     1  UNL1       -0.0837
      3 C           6.5602    7.7775    8.9734 C.2     1  UNL1       -0.0837
      4 C           5.5226    7.7671    9.9218 C.3     1  UNL1       -0.0130
      5 C           5.8371    7.8944   11.3068 C.3     1  UNL1       -0.0275
      6 C           7.1274    8.6446   11.5922 C.3     1  UNL1       -0.0334
      7 C           7.0712   10.1284   11.1954 C.3     1  UNL1       -0.0616
      8 H           9.2019    8.0470   11.0849 H       1  UNL1        0.0351
      9 H           8.6978    7.6866    8.6882 H       1  UNL1        0.0572
     10 H           6.3321    7.7861    7.9086 H       1  UNL1        0.0572
     11 H           4.4882    7.7565    9.5813 H       1  UNL1        0.0352
     12 H           5.0034    8.1226   11.9732 H       1  UNL1        0.0312
     13 H           7.3559    8.5895   12.6692 H       1  UNL1        0.0307
     14 H           8.0264   10.6124   11.3956 H       1  UNL1        0.0233
     15 H           6.8494   10.2266   10.1328 H       1  UNL1        0.0233
     16 H           6.2961   10.6463   11.7591 H       1  UNL1        0.0233
@<TRIPOS>BOND
     1    10     3    1
     2     9     2    1
     3     3     2    2
     4     3     4    1
     5     2     1    1
     6    11     4    1
     7     4     5    1
     8    15     7    1
     9     1     8    1
    10     1     6    1
    11     7    14    1
    12     7     6    1
    13     7    16    1
    14     5     6    1
    15     5    12    1
    16     6    13    1
