@<TRIPOS>MOLECULE
2,3,4,5,6
 16 16 0 0 0
SMALL
GASTEIGER

@<TRIPOS>ATOM
      1 C           4.3836    6.2055    2.2886 C.3     1  UNL1       -0.0334
      2 C           5.8477    5.9257    1.9863 C.3     1  UNL1       -0.0275
      3 C           6.0516    4.7531    1.1978 C.3     1  UNL1       -0.0130
      4 C           5.0978    3.7223    1.2488 C.2     1  UNL1       -0.0837
      5 C           4.1079    3.7543    2.2423 C.2     1  UNL1       -0.0837
      6 C           3.9534    4.9436    3.0213 C.3     1  UNL1       -0.0135
      7 C           3.5432    6.5081    1.0369 C.3     1  UNL1       -0.0616
      8 H           4.3036    7.0707    2.9581 H       1  UNL1        0.0307
      9 H           6.4523    6.7965    1.7251 H       1  UNL1        0.0312
     10 H           6.8651    4.7010    0.4745 H       1  UNL1        0.0352
     11 H           5.1521    2.8890    0.5535 H       1  UNL1        0.0572
     12 H           3.4062    2.9270    2.3299 H       1  UNL1        0.0572
     13 H           3.0225    5.0212    3.5901 H       1  UNL1        0.0351
     14 H           3.5913    5.6756    0.3362 H       1  UNL1        0.0233
     15 H           3.9132    7.4019    0.5358 H       1  UNL1        0.0233
     16 H           2.5006    6.6697    1.3086 H       1  UNL1        0.0233
@<TRIPOS>BOND
     1    14     7    1
     2    10     3    1
     3    15     7    1
     4    11     4    1
     5     7    16    1
     6     7     1    1
     7     3     4    1
     8     3     2    1
     9     4     5    2
    10     9     2    1
    11     2     1    1
    12     5    12    1
    13     5     6    1
    14     1     8    1
    15     1     6    1
    16     6    13    1
