@<TRIPOS>MOLECULE
1,4,5,18,19
 45 46 0 0 0
SMALL
GASTEIGER

@<TRIPOS>ATOM
      1 C           0.8953    1.0139    2.4769 C.2     1  UNL1        0.0000
      2 O           0.6738    0.8115    1.1561 O.2     1  UNL1        0.0000
      3 H           0.8211   -0.1171    0.9426 H       1  UNL1        0.0000
      4 C           0.9833    0.0150    3.4937 C.3     1  UNL1        0.0000
      5 C           1.0113    0.7332    4.7433 C.2     1  UNL1        0.0000
      6 C           0.8860    0.1828    6.1304 C.3     1  UNL1        0.0000
      7 H           1.5248   -0.6899    6.2642 H       1  UNL1        0.0000
      8 H          -0.1504   -0.1356    6.2926 H       1  UNL1        0.0000
      9 C           1.2553    1.2692    7.1393 C.3     1  UNL1        0.0000
     10 H           1.0636    0.9143    8.1536 H       1  UNL1        0.0000
     11 H           2.3210    1.4919    7.0466 H       1  UNL1        0.0000
     12 C           0.4488    2.5353    6.8606 C.3     1  UNL1        0.0000
     13 H           0.5826    3.2545    7.6704 H       1  UNL1        0.0000
     14 H          -0.6125    2.2775    6.8146 H       1  UNL1        0.0000
     15 C           0.8828    3.1694    5.5370 C.3     1  UNL1        0.0000
     16 H           0.1524    3.9172    5.2191 H       1  UNL1        0.0000
     17 H           1.8373    3.6800    5.6724 H       1  UNL1        0.0000
     18 C           1.0131    2.1191    4.4730 C.2     1  UNL1        0.0000
     19 C           0.9953    2.3115    3.0482 C.2     1  UNL1        0.0000
     20 SI          0.8198   -1.8402    3.2027 Si      1  UNL1        0.0000
     21 C          -1.0402   -2.2669    3.1008 C.3     1  UNL1        0.0000
     22 H          -1.5403   -2.0865    4.0477 H       1  UNL1        0.0000
     23 H          -1.1830   -3.3136    2.8502 H       1  UNL1        0.0000
     24 H          -1.5500   -1.6748    2.3459 H       1  UNL1        0.0000
     25 C           1.6725   -2.8638    4.5608 C.3     1  UNL1        0.0000
     26 H           1.1001   -2.8788    5.4824 H       1  UNL1        0.0000
     27 H           2.6618   -2.4768    4.7849 H       1  UNL1        0.0000
     28 H           1.7910   -3.8937    4.2384 H       1  UNL1        0.0000
     29 C           1.6738   -2.2512    1.5382 C.3     1  UNL1        0.0000
     30 H           2.5383   -1.6143    1.3658 H       1  UNL1        0.0000
     31 H           1.0039   -2.1621    0.6861 H       1  UNL1        0.0000
     32 H           2.0329   -3.2757    1.5402 H       1  UNL1        0.0000
     33 SI          0.9562    3.9235    2.0661 Si      1  UNL1        0.0000
     34 C          -0.8718    4.4296    1.8276 C.3     1  UNL1        0.0000
     35 H          -0.9410    5.3602    1.2737 H       1  UNL1        0.0000
     36 H          -1.3824    4.5729    2.7755 H       1  UNL1        0.0000
     37 H          -1.4164    3.6732    1.2710 H       1  UNL1        0.0000
     38 C           1.9286    5.2523    3.0268 C.3     1  UNL1        0.0000
     39 H           2.2185    6.0667    2.3708 H       1  UNL1        0.0000
     40 H           2.8356    4.8218    3.4407 H       1  UNL1        0.0000
     41 H           1.3578    5.6811    3.8436 H       1  UNL1        0.0000
     42 C           1.8208    3.6377    0.3957 C.3     1  UNL1        0.0000
     43 H           1.8934    4.5575   -0.1765 H       1  UNL1        0.0000
     44 H           1.2891    2.9099   -0.2071 H       1  UNL1        0.0000
     45 H           2.8279    3.2623    0.5537 H       1  UNL1        0.0000
@<TRIPOS>BOND
     1    44    42    1
     2    43    42    1
     3    42    45    1
     4    42    33    1
     5    31    29    1
     6     3     2    1
     7     2     1    1
     8    37    34    1
     9    35    34    1
    10    30    29    1
    11    29    32    1
    12    29    20    1
    13    34    33    1
    14    34    36    1
    15    33    38    1
    16    33    19    1
    17    24    21    1
    18    39    38    1
    19     1    19    2
    20     1     4    1
    21    23    21    1
    22    38    40    1
    23    38    41    1
    24    19    18    1
    25    21    20    1
    26    21    22    1
    27    20     4    1
    28    20    25    1
    29     4     5    1
    30    28    25    1
    31    18     5    2
    32    18    15    1
    33    25    27    1
    34    25    26    1
    35     5     6    1
    36    16    15    1
    37    15    17    1
    38    15    12    1
    39     6     7    1
    40     6     8    1
    41     6     9    1
    42    14    12    1
    43    12     9    1
    44    12    13    1
    45    11     9    1
    46     9    10    1
