@<TRIPOS>MOLECULE
1,2,3,4,5
 10 10 0 0 0
SMALL
GASTEIGER

@<TRIPOS>ATOM
      1 C           4.4589    0.8654   12.4364 C.2     1  UNL1       -0.0763
      2 C           5.7518    0.3945   12.1372 C.2     1  UNL1       -0.0654
      3 C           5.6576   -0.9739   11.8142 C.2     1  UNL1       -0.0654
      4 C           4.3082   -1.3546   11.9136 C.2     1  UNL1       -0.0763
      5 C           3.5575   -0.2165   12.2878 C.3     1  UNL1        0.0054
      6 H           4.2242    1.8447   12.8336 H       1  UNL1        0.0578
      7 H           6.6693    0.9596   12.2401 H       1  UNL1        0.0615
      8 H           6.4937   -1.6340   11.6277 H       1  UNL1        0.0615
      9 H           3.9170   -2.3590   11.8164 H       1  UNL1        0.0578
     10 H           2.5063   -0.2230   12.5584 H       1  UNL1        0.0394
@<TRIPOS>BOND
     1     8     3    1
     2     3     4    2
     3     3     2    1
     4     9     4    1
     5     4     5    1
     6     2     7    1
     7     2     1    2
     8     5     1    1
     9     5    10    1
    10     1     6    1
