@<TRIPOS>MOLECULE
1,3,5,7,9
 10 10 0 0 0
SMALL
GASTEIGER

@<TRIPOS>ATOM
      1 C           2.0783    0.5673    0.2638 C.2     1  UNL1       -0.0837
      2 H           1.7633    0.4868   -0.7632 H       1  UNL1        0.0572
      3 C           1.3846    1.2589    1.2900 C.2     1  UNL1       -0.0837
      4 H           0.4371    1.7574    1.1789 H       1  UNL1        0.0572
      5 C           2.0323    0.9838    2.5173 C.3     1  UNL1       -0.0127
      6 H           1.6793    1.2619    3.4948 H       1  UNL1        0.0352
      7 C           3.1639    0.1848    2.2413 C.3     1  UNL1       -0.0235
      8 H           3.8052   -0.2681    2.9781 H       1  UNL1        0.0315
      9 C           3.1764   -0.0956    0.8484 C.3     1  UNL1       -0.0127
     10 H           3.8433   -0.7798    0.3497 H       1  UNL1        0.0352
@<TRIPOS>BOND
     1     2     1    1
     2     1     9    1
     3     1     3    2
     4    10     9    1
     5     9     7    1
     6     4     3    1
     7     3     5    1
     8     7     5    1
     9     7     8    1
    10     5     6    1
