@<TRIPOS>MOLECULE
1,2,3,4,5
 25 25 0 0 0
SMALL
GASTEIGER

@<TRIPOS>ATOM
      1 C           9.6754    7.7410   11.2934 C.2     1  UNL1       -0.0658
      2 C           9.7974    8.9163   10.4996 C.2     1  UNL1       -0.0658
      3 C          10.3214    8.5381    9.2170 C.3     1  UNL1        0.0052
      4 C          10.4769    7.1270    9.2073 C.3     1  UNL1       -0.0053
      5 C          10.0338    6.6261   10.4763 C.3     1  UNL1        0.0052
      6 C           9.4041    7.6932   12.7614 C.3     1  UNL1       -0.0430
      7 C           9.6850   10.3231   11.0002 C.3     1  UNL1       -0.0430
      8 C          10.8006    9.4866    8.1628 C.3     1  UNL1       -0.0545
      9 C          11.1459    6.3224    8.1369 C.3     1  UNL1       -0.0574
     10 C          10.1960    5.2207   10.9658 C.3     1  UNL1       -0.0545
     11 H           8.8882    6.7772   13.0385 H       1  UNL1        0.0275
     12 H           8.7976    8.5375   13.0789 H       1  UNL1        0.0275
     13 H          10.3494    7.7274   13.3072 H       1  UNL1        0.0275
     14 H           8.9401   10.4001   11.7885 H       1  UNL1        0.0275
     15 H          10.6447   10.6522   11.4034 H       1  UNL1        0.0275
     16 H           9.4044   11.0017   10.1980 H       1  UNL1        0.0275
     17 H          10.1873   10.3839    8.1370 H       1  UNL1        0.0239
     18 H          11.8306    9.7838    8.3696 H       1  UNL1        0.0239
     19 H          10.7700    9.0245    7.1793 H       1  UNL1        0.0239
     20 H           9.4098    4.9640   11.6723 H       1  UNL1        0.0239
     21 H          11.1576    5.1059   11.4695 H       1  UNL1        0.0239
     22 H          10.1560    4.5132   10.1414 H       1  UNL1        0.0239
     23 H          10.9888    6.7672    7.1573 H       1  UNL1        0.0236
     24 H          12.2205    6.2787    8.3241 H       1  UNL1        0.0236
     25 H          10.7632    5.3050    8.1142 H       1  UNL1        0.0236
@<TRIPOS>BOND
     1    23     9    1
     2    19     8    1
     3    25     9    1
     4     9    24    1
     5     9     4    1
     6    17     8    1
     7     8    18    1
     8     8     3    1
     9     4     3    1
    10     4     5    1
    11     3     2    1
    12    22    10    1
    13    16     7    1
    14     5    10    1
    15     5     1    1
    16     2     7    1
    17     2     1    2
    18    10    21    1
    19    10    20    1
    20     7    15    1
    21     7    14    1
    22     1     6    1
    23     6    11    1
    24     6    12    1
    25     6    13    1
