@<TRIPOS>MOLECULE
1,3,5,7,9
 10 10 0 0 0
SMALL
GASTEIGER

@<TRIPOS>ATOM
      1 C           8.6886    1.1752    9.2189 C.2     1  UNL1       -0.0654
      2 H           8.4940    1.2029   10.2790 H       1  UNL1        0.0615
      3 C           8.3915    0.0838    8.3580 C.2     1  UNL1       -0.0654
      4 H           7.8989   -0.8292    8.6500 H       1  UNL1        0.0615
      5 C           8.9625    0.3526    7.1012 C.2     1  UNL1       -0.0763
      6 H           8.9903   -0.3188    6.2586 H       1  UNL1        0.0578
      7 C           9.6155    1.6131    7.1798 C.3     1  UNL1        0.0054
      8 H          10.2413    2.0417    6.4143 H       1  UNL1        0.0394
      9 C           9.4904    2.0919    8.5021 C.2     1  UNL1       -0.0763
     10 H           9.9705    2.9695    8.9000 H       1  UNL1        0.0578
@<TRIPOS>BOND
     1     6     5    1
     2     8     7    1
     3     5     7    1
     4     5     3    2
     5     7     9    1
     6     3     4    1
     7     3     1    1
     8     9    10    1
     9     9     1    2
    10     1     2    1
