@<TRIPOS>MOLECULE
2,3,4,5,10
 32 33 0 0 0
SMALL
GASTEIGER

@<TRIPOS>ATOM
      1 SI          1.4537    0.9831    2.3234 Si      1  UNL1        0.0000
      2 C           2.2767    0.9505    4.0165 C.3     1  UNL1        0.0000
      3 C           2.9943   -0.1721    4.5250 C.3     1  UNL1        0.0000
      4 C           3.3188    0.0662    5.8785 C.2     1  UNL1        0.0000
      5 C           2.7807    1.3276    6.2395 C.2     1  UNL1        0.0000
      6 C           2.6834    1.9459    7.6086 C.3     1  UNL1        0.0000
      7 C           1.5154    2.9354    7.6316 C.3     1  UNL1        0.0000
      8 C           1.6254    3.8972    6.4494 C.3     1  UNL1        0.0000
      9 C           1.3672    3.1558    5.1348 C.3     1  UNL1        0.0000
     10 C           2.1565    1.8767    5.0982 C.3     1  UNL1        0.0000
     11 C           0.0967   -0.3675    2.3348 C.3     1  UNL1        0.0000
     12 C           2.7782    0.4938    1.0304 C.3     1  UNL1        0.0000
     13 C           0.6458    2.6317    1.8115 C.3     1  UNL1        0.0000
     14 H           3.1367   -1.1087    3.9987 H       1  UNL1        0.0000
     15 H           3.7447   -0.6549    6.5646 H       1  UNL1        0.0000
     16 H           3.6002    2.4896    7.8646 H       1  UNL1        0.0000
     17 H           2.5382    1.1641    8.3605 H       1  UNL1        0.0000
     18 H           0.5704    2.3904    7.5672 H       1  UNL1        0.0000
     19 H           1.5243    3.4903    8.5711 H       1  UNL1        0.0000
     20 H           2.6289    4.3308    6.4317 H       1  UNL1        0.0000
     21 H           0.9068    4.7118    6.5569 H       1  UNL1        0.0000
     22 H           1.6233    3.7993    4.2880 H       1  UNL1        0.0000
     23 H           0.2999    2.9162    5.0563 H       1  UNL1        0.0000
     24 H           0.4982   -1.3406    2.5984 H       1  UNL1        0.0000
     25 H          -0.3632   -0.4556    1.3566 H       1  UNL1        0.0000
     26 H          -0.6883   -0.1358    3.0470 H       1  UNL1        0.0000
     27 H           3.0834   -0.5433    1.1401 H       1  UNL1        0.0000
     28 H           3.6588    1.1249    1.1231 H       1  UNL1        0.0000
     29 H           2.3958    0.6083    0.0213 H       1  UNL1        0.0000
     30 H           0.2253    2.5399    0.8147 H       1  UNL1        0.0000
     31 H           1.3678    3.4404    1.7911 H       1  UNL1        0.0000
     32 H          -0.1608    2.9137    2.4797 H       1  UNL1        0.0000
@<TRIPOS>BOND
     1    29    12    1
     2    30    13    1
     3    12    28    1
     4    12    27    1
     5    12     1    1
     6    25    11    1
     7    31    13    1
     8    13     1    1
     9    13    32    1
    10     1    11    1
    11     1     2    1
    12    11    24    1
    13    11    26    1
    14    14     3    1
    15     2     3    1
    16     2    10    1
    17    22     9    1
    18     3     4    1
    19    23     9    1
    20    10     9    1
    21    10     5    1
    22     9     8    1
    23     4     5    2
    24     4    15    1
    25     5     6    1
    26    20     8    1
    27     8    21    1
    28     8     7    1
    29    18     7    1
    30     6     7    1
    31     6    16    1
    32     6    17    1
    33     7    19    1
