@<TRIPOS>MOLECULE
1,15,16,18,19
 32 33 0 0 0
SMALL
GASTEIGER

@<TRIPOS>ATOM
      1 C           6.7659    0.9502    4.7753 C.3     1  UNL1        0.0000
      2 SI          7.5887    0.9830    6.4686 Si      1  UNL1        0.0000
      3 C           8.9469   -0.3664    6.4566 C.3     1  UNL1        0.0000
      4 H           8.5464   -1.3397    6.1925 H       1  UNL1        0.0000
      5 H           9.4068   -0.4544    7.4348 H       1  UNL1        0.0000
      6 H           9.7319   -0.1337    5.7445 H       1  UNL1        0.0000
      7 C           6.2645    0.4921    7.7612 C.3     1  UNL1        0.0000
      8 H           5.9598   -0.5450    7.6507 H       1  UNL1        0.0000
      9 H           5.3836    1.1229    7.6689 H       1  UNL1        0.0000
     10 H           6.6469    0.6062    8.7704 H       1  UNL1        0.0000
     11 C           8.3955    2.6319    6.9812 C.3     1  UNL1        0.0000
     12 H           8.8155    2.5401    7.9782 H       1  UNL1        0.0000
     13 H           7.6729    3.4402    7.0017 H       1  UNL1        0.0000
     14 H           9.2022    2.9148    6.3135 H       1  UNL1        0.0000
     15 C           6.0480   -0.1722    4.2669 C.2     1  UNL1        0.0000
     16 C           5.7238    0.0659    2.9134 C.2     1  UNL1        0.0000
     17 H           5.9054   -1.1088    4.7934 H       1  UNL1        0.0000
     18 C           6.2621    1.3274    2.5523 C.2     1  UNL1        0.0000
     19 C           6.8864    1.8763    3.6936 C.2     1  UNL1        0.0000
     20 C           6.3597    1.9455    1.1832 C.3     1  UNL1        0.0000
     21 C           7.5281    2.9346    1.1600 C.3     1  UNL1        0.0000
     22 C           7.4180    3.8964    2.3423 C.3     1  UNL1        0.0000
     23 C           7.6758    3.1553    3.6572 C.3     1  UNL1        0.0000
     24 H           7.4196    3.7990    4.5038 H       1  UNL1        0.0000
     25 H           8.7431    2.9154    3.7357 H       1  UNL1        0.0000
     26 H           6.4147    4.3303    2.3598 H       1  UNL1        0.0000
     27 H           8.1367    4.7108    2.2347 H       1  UNL1        0.0000
     28 H           8.4730    2.3893    1.2248 H       1  UNL1        0.0000
     29 H           7.5195    3.4894    0.2205 H       1  UNL1        0.0000
     30 H           5.4430    2.4894    0.9270 H       1  UNL1        0.0000
     31 H           6.5049    1.1636    0.4315 H       1  UNL1        0.0000
     32 H           5.2978   -0.6551    2.2273 H       1  UNL1        0.0000
@<TRIPOS>BOND
     1    29    21    1
     2    31    20    1
     3    30    20    1
     4    21    20    1
     5    21    28    1
     6    21    22    1
     7    20    18    1
     8    32    16    1
     9    27    22    1
    10    22    26    1
    11    22    23    1
    12    18    16    1
    13    18    19    2
    14    16    15    2
    15    23    19    1
    16    23    25    1
    17    23    24    1
    18    19     1    1
    19    15     1    1
    20    15    17    1
    21     1     2    1
    22     6     3    1
    23     4     3    1
    24    14    11    1
    25     3     2    1
    26     3     5    1
    27     2    11    1
    28     2     7    1
    29    11    13    1
    30    11    12    1
    31     8     7    1
    32     9     7    1
    33     7    10    1
