@<TRIPOS>MOLECULE
1,2,3,4,5
 25 25 0 0 0
SMALL
GASTEIGER

@<TRIPOS>ATOM
      1 C           5.6415    9.0818    2.0384 C.3     1  UNL1        0.0052
      2 C           5.2089    7.9907    2.8799 C.3     1  UNL1       -0.0053
      3 C           6.0830    6.9065    2.6352 C.3     1  UNL1        0.0052
      4 C           7.0026    7.2946    1.5847 C.2     1  UNL1       -0.0658
      5 C           6.7067    8.6123    1.1959 C.2     1  UNL1       -0.0658
      6 C           4.7905   10.2851    1.7652 C.3     1  UNL1       -0.0545
      7 H           5.3518   11.0791    1.2772 H       1  UNL1        0.0239
      8 H           4.3575   10.6738    2.6847 H       1  UNL1        0.0239
      9 H           3.9733    9.9934    1.1009 H       1  UNL1        0.0239
     10 C           3.8989    7.9800    3.6050 C.3     1  UNL1       -0.0574
     11 H           3.0886    8.0865    2.8807 H       1  UNL1        0.0236
     12 H           3.8295    8.7998    4.3182 H       1  UNL1        0.0236
     13 H           3.7544    7.0484    4.1453 H       1  UNL1        0.0236
     14 C           5.9216    5.4849    3.0708 C.3     1  UNL1       -0.0545
     15 H           6.8624    5.0849    3.4501 H       1  UNL1        0.0239
     16 H           5.6220    4.8778    2.2134 H       1  UNL1        0.0239
     17 H           5.1658    5.3864    3.8448 H       1  UNL1        0.0239
     18 C           7.8861    6.3122    0.8864 C.3     1  UNL1       -0.0430
     19 H           8.4847    6.7859    0.1122 H       1  UNL1        0.0275
     20 H           7.2677    5.5416    0.4208 H       1  UNL1        0.0275
     21 H           8.5518    5.8163    1.5950 H       1  UNL1        0.0275
     22 C           7.1795    9.3143   -0.0395 C.3     1  UNL1       -0.0430
     23 H           6.4729    9.1142   -0.8493 H       1  UNL1        0.0275
     24 H           8.1586    8.9616   -0.3535 H       1  UNL1        0.0275
     25 H           7.2225   10.3927    0.1024 H       1  UNL1        0.0275
@<TRIPOS>BOND
     1    23    22    1
     2    24    22    1
     3    22    25    1
     4    22     5    1
     5    19    18    1
     6    20    18    1
     7    18     4    1
     8    18    21    1
     9     9     6    1
    10     5     4    2
    11     5     1    1
    12     7     6    1
    13     4     3    1
    14     6     1    1
    15     6     8    1
    16     1     2    1
    17    16    14    1
    18     3     2    1
    19     3    14    1
    20     2    10    1
    21    11    10    1
    22    14    15    1
    23    14    17    1
    24    10    13    1
    25    10    12    1
