@<TRIPOS>MOLECULE
1,2,3,4,5
 25 25 0 0 0
SMALL
GASTEIGER

@<TRIPOS>ATOM
      1 C           4.6280    3.1669    8.6150 C.3     1  UNL1        0.0231
      2 C           4.3576    3.2238   10.0130 C.2     1  UNL1       -0.0584
      3 C           4.1464    1.9002   10.4717 C.2     1  UNL1       -0.0477
      4 C           4.3335    1.0072    9.3679 C.2     1  UNL1       -0.0477
      5 C           4.6520    1.7906    8.2284 C.2     1  UNL1       -0.0584
      6 C           4.9817    4.3496    7.7755 C.3     1  UNL1       -0.0510
      7 H           4.3557    5.1943    8.0536 H       1  UNL1        0.0242
      8 H           4.8217    4.1428    6.7204 H       1  UNL1        0.0242
      9 H           6.0272    4.6273    7.9196 H       1  UNL1        0.0242
     10 C           4.4249    4.4568   10.8521 C.3     1  UNL1       -0.0424
     11 H           3.7460    5.2157   10.4665 H       1  UNL1        0.0275
     12 H           5.4381    4.8609   10.8343 H       1  UNL1        0.0275
     13 H           4.1587    4.2368   11.8826 H       1  UNL1        0.0275
     14 C           3.9926    1.4901   11.9020 C.3     1  UNL1       -0.0395
     15 H           3.8590    0.4147   11.9789 H       1  UNL1        0.0278
     16 H           3.1394    1.9811   12.3678 H       1  UNL1        0.0278
     17 H           4.8876    1.7629   12.4640 H       1  UNL1        0.0278
     18 C           4.4517   -0.4802    9.4956 C.3     1  UNL1       -0.0395
     19 H           3.5445   -0.9205    9.9106 H       1  UNL1        0.0278
     20 H           5.2797   -0.7293   10.1622 H       1  UNL1        0.0278
     21 H           4.6509   -0.9391    8.5306 H       1  UNL1        0.0278
     22 C           5.0958    1.2735    6.8990 C.3     1  UNL1       -0.0424
     23 H           4.5343    0.3893    6.6047 H       1  UNL1        0.0275
     24 H           6.1542    1.0079    6.9408 H       1  UNL1        0.0275
     25 H           4.9673    2.0324    6.1314 H       1  UNL1        0.0275
@<TRIPOS>BOND
     1    25    22    1
     2    23    22    1
     3     8     6    1
     4    22    24    1
     5    22     5    1
     6     6     9    1
     7     6     7    1
     8     6     1    1
     9     5     1    1
    10     5     4    2
    11    21    18    1
    12     1     2    1
    13     4    18    1
    14     4     3    1
    15    18    19    1
    16    18    20    1
    17     2     3    2
    18     2    10    1
    19    11    10    1
    20     3    14    1
    21    12    10    1
    22    10    13    1
    23    14    15    1
    24    14    16    1
    25    14    17    1
