@<TRIPOS>MOLECULE
1,2,3,4,5
 25 25 0 0 0
SMALL
GASTEIGER

@<TRIPOS>ATOM
      1 C          10.7276    9.1267    3.7843 C.3     1  UNL1       -0.0053
      2 C          11.5756    8.7729    2.7076 C.3     1  UNL1        0.0052
      3 C          10.7789    8.1283    1.6994 C.2     1  UNL1       -0.0658
      4 C           9.4430    8.0983    2.1579 C.2     1  UNL1       -0.0658
      5 C           9.3969    8.7666    3.4223 C.3     1  UNL1        0.0052
      6 C          11.1419    9.6758    5.1113 C.3     1  UNL1       -0.0574
      7 H          10.6394   10.6217    5.3080 H       1  UNL1        0.0236
      8 H          12.2162    9.8364    5.1448 H       1  UNL1        0.0236
      9 H          10.8757    8.9737    5.9022 H       1  UNL1        0.0236
     10 C          13.0697    8.8109    2.7068 C.3     1  UNL1       -0.0545
     11 H          13.4453    9.7379    3.1345 H       1  UNL1        0.0239
     12 H          13.4536    8.7182    1.6942 H       1  UNL1        0.0239
     13 H          13.4610    7.9795    3.2971 H       1  UNL1        0.0239
     14 C          11.3328    7.3815    0.5269 C.3     1  UNL1       -0.0430
     15 H          11.9771    8.0137   -0.0831 H       1  UNL1        0.0275
     16 H          10.5322    6.9950   -0.0988 H       1  UNL1        0.0275
     17 H          11.9295    6.5359    0.8744 H       1  UNL1        0.0275
     18 C           8.3148    7.3350    1.5417 C.3     1  UNL1       -0.0430
     19 H           7.3934    7.5142    2.0887 H       1  UNL1        0.0275
     20 H           8.5319    6.2661    1.5844 H       1  UNL1        0.0275
     21 H           8.1588    7.6037    0.4984 H       1  UNL1        0.0275
     22 C           8.1984    8.8775    4.3050 C.3     1  UNL1       -0.0545
     23 H           8.3983    9.5746    5.1131 H       1  UNL1        0.0239
     24 H           7.9414    7.9069    4.7339 H       1  UNL1        0.0239
     25 H           7.3451    9.2465    3.7384 H       1  UNL1        0.0239
@<TRIPOS>BOND
     1    16    14    1
     2    15    14    1
     3    21    18    1
     4    14    17    1
     5    14     3    1
     6    18    20    1
     7    18    19    1
     8    18     4    1
     9    12    10    1
    10     3     4    2
    11     3     2    1
    12     4     5    1
    13    10     2    1
    14    10    11    1
    15    10    13    1
    16     2     1    1
    17     5     1    1
    18     5    22    1
    19    25    22    1
    20     1     6    1
    21    22    24    1
    22    22    23    1
    23     6     8    1
    24     6     7    1
    25     6     9    1
