@<TRIPOS>MOLECULE
1,2,3,4,5
 25 25 0 0 0
SMALL
GASTEIGER

@<TRIPOS>ATOM
      1 C           3.0257    8.5531    4.4962 C.2     1  UNL1       -0.0584
      2 C           3.1018    7.2754    5.1027 C.2     1  UNL1       -0.0477
      3 C           3.1357    6.2865    4.0674 C.2     1  UNL1       -0.0477
      4 C           3.0890    6.9646    2.8219 C.2     1  UNL1       -0.0584
      5 C           3.0626    8.3699    3.0827 C.3     1  UNL1        0.0231
      6 C           2.8039    9.8552    5.1927 C.3     1  UNL1       -0.0424
      7 H           3.5611   10.5798    4.8981 H       1  UNL1        0.0275
      8 H           2.8406    9.7266    6.2711 H       1  UNL1        0.0275
      9 H           1.8252   10.2547    4.9242 H       1  UNL1        0.0275
     10 C           2.9345    6.9953    6.5622 C.3     1  UNL1       -0.0395
     11 H           3.0553    5.9348    6.7646 H       1  UNL1        0.0278
     12 H           1.9339    7.2905    6.8833 H       1  UNL1        0.0278
     13 H           3.6579    7.5487    7.1590 H       1  UNL1        0.0278
     14 C           2.9533    4.8177    4.2956 C.3     1  UNL1       -0.0395
     15 H           2.9516    4.2752    3.3537 H       1  UNL1        0.0278
     16 H           1.9962    4.6366    4.7888 H       1  UNL1        0.0278
     17 H           3.7393    4.4091    4.9317 H       1  UNL1        0.0278
     18 C           2.9296    6.3295    1.4794 C.3     1  UNL1       -0.0424
     19 H           3.5316    5.4276    1.3887 H       1  UNL1        0.0275
     20 H           3.2240    7.0195    0.6928 H       1  UNL1        0.0275
     21 H           1.8836    6.0594    1.3208 H       1  UNL1        0.0275
     22 C           2.9317    9.4726    2.0850 C.3     1  UNL1       -0.0510
     23 H           3.5000   10.3361    2.4231 H       1  UNL1        0.0242
     24 H           1.8875    9.7655    1.9651 H       1  UNL1        0.0242
     25 H           3.3192    9.1708    1.1152 H       1  UNL1        0.0242
@<TRIPOS>BOND
     1    20    18    1
     2    25    22    1
     3    21    18    1
     4    19    18    1
     5    18     4    1
     6    24    22    1
     7    22    23    1
     8    22     5    1
     9     4     5    1
    10     4     3    2
    11     5     1    1
    12    15    14    1
    13     3    14    1
    14     3     2    1
    15    14    16    1
    16    14    17    1
    17     1     2    2
    18     1     6    1
    19     7     6    1
    20     9     6    1
    21     2    10    1
    22     6     8    1
    23    10    11    1
    24    10    12    1
    25    10    13    1
