@<TRIPOS>MOLECULE
1,2,3,4,5
 25 25 0 0 0
SMALL
GASTEIGER

@<TRIPOS>ATOM
      1 C           2.4490    3.1759   -0.0257 C.2     1  UNL1       -0.0477
      2 C           3.6014    2.7097    0.6413 C.2     1  UNL1       -0.0584
      3 C           4.3679    3.8437    1.0476 C.3     1  UNL1        0.0231
      4 C           3.7107    5.0100    0.5524 C.2     1  UNL1       -0.0584
      5 C           2.5215    4.6063   -0.0775 C.2     1  UNL1       -0.0477
      6 C           1.4926    2.3076   -0.7877 C.3     1  UNL1       -0.0395
      7 H           1.9448    1.9962   -1.7324 H       1  UNL1        0.0278
      8 H           0.5658    2.8281   -1.0193 H       1  UNL1        0.0278
      9 H           1.2429    1.4093   -0.2250 H       1  UNL1        0.0278
     10 C           4.0365    1.2817    0.7742 C.3     1  UNL1       -0.0424
     11 H           4.7500    1.0320   -0.0143 H       1  UNL1        0.0275
     12 H           3.1897    0.6042    0.6925 H       1  UNL1        0.0275
     13 H           4.5192    1.1086    1.7345 H       1  UNL1        0.0275
     14 C           5.7583    3.7983    1.6060 C.3     1  UNL1       -0.0510
     15 H           5.8828    2.9415    2.2652 H       1  UNL1        0.0242
     16 H           5.9788    4.6998    2.1737 H       1  UNL1        0.0242
     17 H           6.4897    3.7168    0.7985 H       1  UNL1        0.0242
     18 C           4.2628    6.4017    0.6000 C.3     1  UNL1       -0.0424
     19 H           4.9824    6.5468   -0.2087 H       1  UNL1        0.0275
     20 H           4.7747    6.5893    1.5419 H       1  UNL1        0.0275
     21 H           3.4747    7.1429    0.4854 H       1  UNL1        0.0275
     22 C           1.6235    5.5104   -0.8712 C.3     1  UNL1       -0.0395
     23 H           1.3966    6.4275   -0.3265 H       1  UNL1        0.0278
     24 H           0.6831    5.0244   -1.1238 H       1  UNL1        0.0278
     25 H           2.1120    5.7927   -1.8067 H       1  UNL1        0.0278
@<TRIPOS>BOND
     1    25    22    1
     2     7     6    1
     3    24    22    1
     4     8     6    1
     5    22    23    1
     6    22     5    1
     7     6     9    1
     8     6     1    1
     9    19    18    1
    10     5     1    1
    11     5     4    2
    12     1     2    2
    13    11    10    1
    14    21    18    1
    15     4    18    1
    16     4     3    1
    17    18    20    1
    18     2    10    1
    19     2     3    1
    20    12    10    1
    21    10    13    1
    22    17    14    1
    23     3    14    1
    24    14    16    1
    25    14    15    1
