@<TRIPOS>MOLECULE
2,3,4,5,6
 22 22 0 0 0
SMALL
GASTEIGER

@<TRIPOS>ATOM
      1 SI          0.4168   -2.5083   15.9412 Si      1  UNL1        0.0000
      2 C           1.4495   -2.2397   14.3762 C.2     1  UNL1        0.0000
      3 C           1.0026   -1.9773   13.0789 C.2     1  UNL1        0.0000
      4 C           2.0968   -1.5394   12.2774 C.3     1  UNL1        0.0000
      5 C           3.2292   -1.4537   13.1230 C.2     1  UNL1        0.0000
      6 C           2.8512   -1.9491   14.3874 C.2     1  UNL1        0.0000
      7 C           1.2294   -3.9292   16.9327 C.3     1  UNL1        0.0000
      8 C          -1.3971   -2.9103   15.5291 C.3     1  UNL1        0.0000
      9 C           0.5260   -0.8874   16.9330 C.3     1  UNL1        0.0000
     10 H           3.4693   -1.9118   15.2775 H       1  UNL1        0.0000
     11 H           4.1854   -1.0133   12.8676 H       1  UNL1        0.0000
     12 H           2.0183   -1.0858   11.2945 H       1  UNL1        0.0000
     13 H          -0.0297   -1.9736   12.7594 H       1  UNL1        0.0000
     14 H           2.1673   -3.6047   17.3745 H       1  UNL1        0.0000
     15 H           1.4348   -4.8042   16.3192 H       1  UNL1        0.0000
     16 H           0.0636   -0.0625   16.3995 H       1  UNL1        0.0000
     17 H          -1.5326   -3.9106   15.1305 H       1  UNL1        0.0000
     18 H           0.5828   -4.2420   17.7463 H       1  UNL1        0.0000
     19 H          -1.9956   -2.8417   16.4322 H       1  UNL1        0.0000
     20 H           1.5531   -0.6049   17.1441 H       1  UNL1        0.0000
     21 H           0.0123   -0.9904   17.8834 H       1  UNL1        0.0000
     22 H          -1.8148   -2.2047   14.8168 H       1  UNL1        0.0000
@<TRIPOS>BOND
     1    12     4    1
     2     4     3    1
     3     4     5    1
     4    13     3    1
     5    11     5    1
     6     3     2    2
     7     5     6    2
     8     2     6    1
     9     2     1    1
    10     6    10    1
    11    22     8    1
    12    17     8    1
    13     8     1    1
    14     8    19    1
    15     1     7    1
    16     1     9    1
    17    15     7    1
    18    16     9    1
    19     7    14    1
    20     7    18    1
    21     9    20    1
    22     9    21    1
