@<TRIPOS>MOLECULE
2,3,4,5,6
 22 22 0 0 0
SMALL
GASTEIGER

@<TRIPOS>ATOM
      1 SI          0.3504   -4.4062    9.8157 Si      1  UNL1        0.0000
      2 C           0.8572   -4.9265   11.5761 C.3     1  UNL1        0.0000
      3 C           1.8140   -5.9609   11.8602 C.2     1  UNL1        0.0000
      4 C           1.5956   -6.4246   13.1755 C.2     1  UNL1        0.0000
      5 C           0.4669   -5.7370   13.6940 C.2     1  UNL1        0.0000
      6 C           0.0148   -4.8531   12.7361 C.2     1  UNL1        0.0000
      7 C           1.9386   -3.8100    8.9304 C.3     1  UNL1        0.0000
      8 C          -0.4048   -5.9305    8.9609 C.3     1  UNL1        0.0000
      9 C          -0.9215   -2.9845    9.9051 C.3     1  UNL1        0.0000
     10 H          -0.8692   -4.2414   12.8133 H       1  UNL1        0.0000
     11 H           2.4234   -6.4612   11.1159 H       1  UNL1        0.0000
     12 H           2.0842   -7.2750   13.6312 H       1  UNL1        0.0000
     13 H           0.0135   -5.9248   14.6537 H       1  UNL1        0.0000
     14 H          -1.3036   -2.7750    8.9110 H       1  UNL1        0.0000
     15 H          -1.3062   -6.2643    9.4658 H       1  UNL1        0.0000
     16 H           2.4301   -4.6333    8.4208 H       1  UNL1        0.0000
     17 H           1.7121   -3.0618    8.1772 H       1  UNL1        0.0000
     18 H           2.6515   -3.3796    9.6381 H       1  UNL1        0.0000
     19 H          -1.7757   -3.2421   10.5245 H       1  UNL1        0.0000
     20 H          -0.4962   -2.0588   10.2843 H       1  UNL1        0.0000
     21 H           0.2874   -6.7668    8.9392 H       1  UNL1        0.0000
     22 H          -0.6718   -5.6965    7.9356 H       1  UNL1        0.0000
@<TRIPOS>BOND
     1    22     8    1
     2    17     7    1
     3    16     7    1
     4    14     9    1
     5     7    18    1
     6     7     1    1
     7    21     8    1
     8     8    15    1
     9     8     1    1
    10     1     9    1
    11     1     2    1
    12     9    20    1
    13     9    19    1
    14    11     3    1
    15     2     3    1
    16     2     6    1
    17     3     4    2
    18     6    10    1
    19     6     5    2
    20     4    12    1
    21     4     5    1
    22     5    13    1
