@<TRIPOS>MOLECULE
1,2,3,4,5
 10 10 0 0 0
SMALL
GASTEIGER

@<TRIPOS>ATOM
      1 C          -1.7897   -1.8734    9.4011 C.3     1  UNL1       -0.0127
      2 C          -0.4523   -2.1609    9.8403 C.3     1  UNL1       -0.0235
      3 C          -0.4660   -2.1556   11.2459 C.3     1  UNL1       -0.0127
      4 C          -1.8093   -1.9491   11.6739 C.2     1  UNL1       -0.0837
      5 C          -2.6207   -1.8090   10.5503 C.2     1  UNL1       -0.0837
      6 H          -2.1403   -1.9719    8.3820 H       1  UNL1        0.0352
      7 H           0.3666   -2.4798    9.2101 H       1  UNL1        0.0315
      8 H           0.3575   -2.4292   11.8889 H       1  UNL1        0.0352
      9 H          -2.1424   -1.9664   12.7005 H       1  UNL1        0.0572
     10 H          -3.6930   -1.6985   10.5504 H       1  UNL1        0.0572
@<TRIPOS>BOND
     1     6     1    1
     2     7     2    1
     3     1     2    1
     4     1     5    1
     5     2     3    1
     6     5    10    1
     7     5     4    2
     8     3     4    1
     9     3     8    1
    10     4     9    1
