@<TRIPOS>MOLECULE
1,2,3,4,5
 25 25 0 0 0
SMALL
GASTEIGER

@<TRIPOS>ATOM
      1 C           0.3251    4.1205    4.3506 C.3     1  UNL1        0.0231
      2 C           0.1982    3.7327    3.0014 C.2     1  UNL1       -0.0584
      3 C          -0.9161    2.8391    2.8961 C.2     1  UNL1       -0.0477
      4 C          -1.4904    2.6985    4.2096 C.2     1  UNL1       -0.0477
      5 C          -0.7222    3.4731    5.1072 C.2     1  UNL1       -0.0584
      6 C           1.2163    5.2140    4.8613 C.3     1  UNL1       -0.0510
      7 C           0.9670    4.2842    1.8376 C.3     1  UNL1       -0.0424
      8 C          -1.6159    2.5170    1.6113 C.3     1  UNL1       -0.0395
      9 C          -2.8297    2.0958    4.5092 C.3     1  UNL1       -0.0395
     10 C          -1.1440    3.8411    6.5002 C.3     1  UNL1       -0.0424
     11 H           1.3818    5.1351    5.9358 H       1  UNL1        0.0242
     12 H           2.1870    5.2032    4.3656 H       1  UNL1        0.0242
     13 H           0.7543    6.1851    4.6673 H       1  UNL1        0.0242
     14 H           1.9361    4.6691    2.1506 H       1  UNL1        0.0275
     15 H           1.1329    3.5173    1.0825 H       1  UNL1        0.0275
     16 H           0.4114    5.1030    1.3745 H       1  UNL1        0.0275
     17 H          -2.2653    3.3534    1.3406 H       1  UNL1        0.0278
     18 H          -0.9070    2.3641    0.8014 H       1  UNL1        0.0278
     19 H          -2.2289    1.6240    1.7013 H       1  UNL1        0.0278
     20 H          -2.8634    1.6794    5.5148 H       1  UNL1        0.0278
     21 H          -3.6020    2.8661    4.4380 H       1  UNL1        0.0278
     22 H          -3.0734    1.3037    3.8051 H       1  UNL1        0.0278
     23 H          -0.3052    4.1914    7.1012 H       1  UNL1        0.0275
     24 H          -1.8825    4.6461    6.4601 H       1  UNL1        0.0275
     25 H          -1.6060    2.9964    7.0106 H       1  UNL1        0.0275
@<TRIPOS>BOND
     1    18     8    1
     2    15     7    1
     3    17     8    1
     4    16     7    1
     5     8    19    1
     6     8     3    1
     7     7    14    1
     8     7     2    1
     9     3     2    2
    10     3     4    1
    11     2     1    1
    12    22     9    1
    13     4     9    1
    14     4     5    2
    15     1     6    1
    16     1     5    1
    17    12     6    1
    18    21     9    1
    19     9    20    1
    20    13     6    1
    21     6    11    1
    22     5    10    1
    23    24    10    1
    24    10    25    1
    25    10    23    1
