@<TRIPOS>MOLECULE
3,4,5,6,7
 34 34 0 0 0
SMALL
GASTEIGER

@<TRIPOS>ATOM
      1 SI         -0.5445    5.0819    7.3676 Si      1  UNL1        0.0000
      2 SI         -0.3614    1.4357    2.8079 Si      1  UNL1        0.0000
      3 C          -0.2419    3.0844    5.2516 C.2     1  UNL1        0.0000
      4 C          -0.1237    4.4383    5.6515 C.2     1  UNL1        0.0000
      5 C           0.0166    5.1933    4.4552 C.2     1  UNL1        0.0000
      6 C          -0.0060    4.3173    3.3596 C.2     1  UNL1        0.0000
      7 C          -0.1673    2.9920    3.8413 C.3     1  UNL1        0.0000
      8 C           0.7548    4.6027    8.6948 C.3     1  UNL1        0.0000
      9 C          -0.7416    6.9835    7.3788 C.3     1  UNL1        0.0000
     10 C          -2.2158    4.3043    7.8824 C.3     1  UNL1        0.0000
     11 C          -2.0867    0.6711    3.1340 C.3     1  UNL1        0.0000
     12 C          -0.2220    1.8887    0.9577 C.3     1  UNL1        0.0000
     13 C           0.9775    0.1768    3.3418 C.3     1  UNL1        0.0000
     14 H          -0.4870    2.2621    5.9139 H       1  UNL1        0.0000
     15 H           0.0050    6.2731    4.3910 H       1  UNL1        0.0000
     16 H          -0.0355    4.6052    2.3164 H       1  UNL1        0.0000
     17 H           0.7645    3.5307    8.8729 H       1  UNL1        0.0000
     18 H           0.5244    5.0821    9.6417 H       1  UNL1        0.0000
     19 H           1.7620    4.9026    8.4150 H       1  UNL1        0.0000
     20 H          -1.3202    7.2962    8.2424 H       1  UNL1        0.0000
     21 H          -1.2591    7.3411    6.4942 H       1  UNL1        0.0000
     22 H           0.2157    7.4926    7.4341 H       1  UNL1        0.0000
     23 H          -2.1599    3.2205    7.9156 H       1  UNL1        0.0000
     24 H          -3.0056    4.5680    7.1855 H       1  UNL1        0.0000
     25 H          -2.5184    4.6459    8.8674 H       1  UNL1        0.0000
     26 H          -2.2172   -0.2420    2.5624 H       1  UNL1        0.0000
     27 H          -2.8828    1.3523    2.8509 H       1  UNL1        0.0000
     28 H          -2.2260    0.4242    4.1819 H       1  UNL1        0.0000
     29 H           0.6840    2.4530    0.7519 H       1  UNL1        0.0000
     30 H          -1.0653    2.4949    0.6394 H       1  UNL1        0.0000
     31 H          -0.2120    0.9998    0.3346 H       1  UNL1        0.0000
     32 H           0.7574   -0.2402    4.3219 H       1  UNL1        0.0000
     33 H           1.9522    0.6615    3.3877 H       1  UNL1        0.0000
     34 H           1.0550   -0.6555    2.6492 H       1  UNL1        0.0000
@<TRIPOS>BOND
     1    31    12    1
     2    30    12    1
     3    29    12    1
     4    12     2    1
     5    16     6    1
     6    26    11    1
     7    34    13    1
     8     2    11    1
     9     2    13    1
    10     2     7    1
    11    27    11    1
    12    11    28    1
    13    13    33    1
    14    13    32    1
    15     6     7    1
    16     6     5    2
    17     7     3    1
    18    15     5    1
    19     5     4    1
    20     3     4    2
    21     3    14    1
    22     4     1    1
    23    21     9    1
    24    24    10    1
    25     1     9    1
    26     1    10    1
    27     1     8    1
    28     9    22    1
    29     9    20    1
    30    10    23    1
    31    10    25    1
    32    19     8    1
    33     8    17    1
    34     8    18    1
