@<TRIPOS>MOLECULE
1,3,5,7,9
 10 10 0 0 0
SMALL
GASTEIGER

@<TRIPOS>ATOM
      1 C          28.7839    1.4459    1.4334 C.2     1  UNL1       -0.0763
      2 H          28.6189    1.0989    0.4204 H       1  UNL1        0.0578
      3 C          27.8421    1.3809    2.4810 C.3     1  UNL1        0.0054
      4 H          26.8279    1.0126    2.3978 H       1  UNL1        0.0394
      5 C          28.5046    1.7014    3.6817 C.2     1  UNL1       -0.0763
      6 H          28.0772    1.6485    4.6740 H       1  UNL1        0.0578
      7 C          29.8477    1.9874    3.3818 C.2     1  UNL1       -0.0654
      8 H          30.6322    2.1507    4.1108 H       1  UNL1        0.0615
      9 C          30.0323    1.8178    1.9944 C.2     1  UNL1       -0.0654
     10 H          30.9839    1.8031    1.4827 H       1  UNL1        0.0615
@<TRIPOS>BOND
     1     2     1    1
     2     1     9    2
     3     1     3    1
     4    10     9    1
     5     9     7    1
     6     4     3    1
     7     3     5    1
     8     7     5    2
     9     7     8    1
    10     5     6    1
