@<TRIPOS>MOLECULE
1,3,5,7,9
 10 10 0 0 0
SMALL
GASTEIGER

@<TRIPOS>ATOM
      1 C          29.6770    5.2129    3.9386 C.3     1  UNL1       -0.0127
      2 H          29.7647    4.8673    4.9628 H       1  UNL1        0.0352
      3 C          30.6278    5.0234    2.9092 C.3     1  UNL1       -0.0235
      4 H          31.5893    4.5372    3.0123 H       1  UNL1        0.0315
      5 C          30.2071    5.7739    1.7885 C.3     1  UNL1       -0.0127
      6 H          30.7908    5.9475    0.8950 H       1  UNL1        0.0352
      7 C          28.9986    6.4221    2.1261 C.2     1  UNL1       -0.0837
      8 H          28.4775    7.1469    1.5129 H       1  UNL1        0.0572
      9 C          28.6815    6.0880    3.4549 C.2     1  UNL1       -0.0837
     10 H          27.8758    6.5077    4.0433 H       1  UNL1        0.0572
@<TRIPOS>BOND
     1     6     5    1
     2     8     7    1
     3     5     7    1
     4     5     3    1
     5     7     9    2
     6     3     4    1
     7     3     1    1
     8     9     1    1
     9     9    10    1
    10     1     2    1
