@<TRIPOS>MOLECULE
1,2,3,4,5
 25 25 0 0 0
SMALL
GASTEIGER

@<TRIPOS>ATOM
      1 C           1.5071   -1.6271    9.3214 C.2     1  UNL1       -0.0584
      2 C           0.8249   -0.5378    9.9623 C.2     1  UNL1       -0.0477
      3 C          -0.2752   -0.1388    9.1423 C.2     1  UNL1       -0.0477
      4 C          -0.2321   -0.9226    7.9562 C.2     1  UNL1       -0.0584
      5 C           0.8642   -1.8590    8.0734 C.3     1  UNL1        0.0231
      6 C           2.4901   -2.5370    9.9959 C.3     1  UNL1       -0.0424
      7 H           1.9616   -3.1855   10.6996 H       1  UNL1        0.0275
      8 H           3.2434   -1.9779   10.5481 H       1  UNL1        0.0275
      9 H           3.0015   -3.1623    9.2682 H       1  UNL1        0.0275
     10 C           1.0017   -0.1666   11.4052 C.3     1  UNL1       -0.0395
     11 H           0.7074    0.8636   11.5995 H       1  UNL1        0.0278
     12 H           2.0346   -0.2957   11.7223 H       1  UNL1        0.0278
     13 H           0.3748   -0.8180   12.0196 H       1  UNL1        0.0278
     14 C          -1.4390    0.6752    9.6261 C.3     1  UNL1       -0.0395
     15 H          -2.1329    0.0139   10.1530 H       1  UNL1        0.0278
     16 H          -1.9839    1.1445    8.8097 H       1  UNL1        0.0278
     17 H          -1.1258    1.4509   10.3212 H       1  UNL1        0.0278
     18 C          -1.3443   -1.0731    6.9597 C.3     1  UNL1       -0.0424
     19 H          -1.9738   -0.1868    6.9137 H       1  UNL1        0.0275
     20 H          -1.9731   -1.9180    7.2531 H       1  UNL1        0.0275
     21 H          -0.9616   -1.2740    5.9605 H       1  UNL1        0.0275
     22 C           1.0303   -3.0756    7.2123 C.3     1  UNL1       -0.0510
     23 H           2.0458   -3.4617    7.2603 H       1  UNL1        0.0242
     24 H           0.8033   -2.8593    6.1703 H       1  UNL1        0.0242
     25 H           0.3462   -3.8562    7.5556 H       1  UNL1        0.0242
@<TRIPOS>BOND
     1    21    18    1
     2    24    22    1
     3    19    18    1
     4    18    20    1
     5    18     4    1
     6    22    23    1
     7    22    25    1
     8    22     5    1
     9     4     5    1
    10     4     3    2
    11     5     1    1
    12    16    14    1
    13     3    14    1
    14     3     2    1
    15     9     6    1
    16     1     2    2
    17     1     6    1
    18    14    15    1
    19    14    17    1
    20     2    10    1
    21     6     8    1
    22     6     7    1
    23    10    11    1
    24    10    12    1
    25    10    13    1
