@<TRIPOS>MOLECULE
2,3,5,7,9
 22 22 0 0 0
SMALL
GASTEIGER

@<TRIPOS>ATOM
      1 SI          2.9723    8.3198    1.3675 Si      1  UNL1        0.0000
      2 C           4.3180    7.4954    2.3947 C.2     1  UNL1        0.0000
      3 C           5.3743    6.6723    1.9225 C.2     1  UNL1        0.0000
      4 H           5.5110    6.3659    0.8924 H       1  UNL1        0.0000
      5 C           6.2848    6.4588    2.9709 C.2     1  UNL1        0.0000
      6 H           7.2446    5.9624    2.8829 H       1  UNL1        0.0000
      7 C           5.8119    7.1527    4.1047 C.2     1  UNL1        0.0000
      8 H           6.3447    7.2872    5.0376 H       1  UNL1        0.0000
      9 C           4.6057    7.7774    3.7570 C.3     1  UNL1        0.0000
     10 H           4.0496    8.4726    4.3714 H       1  UNL1        0.0000
     11 C           3.8359    9.3536    0.0040 C.3     1  UNL1        0.0000
     12 H           4.4129    8.7237   -0.6658 H       1  UNL1        0.0000
     13 H           4.5137   10.0884    0.4274 H       1  UNL1        0.0000
     14 H           3.1061    9.8871   -0.5961 H       1  UNL1        0.0000
     15 C           1.9817    9.4923    2.5087 C.3     1  UNL1        0.0000
     16 H           1.5571    8.9458    3.3456 H       1  UNL1        0.0000
     17 H           1.1647    9.9598    1.9689 H       1  UNL1        0.0000
     18 H           2.6048   10.2873    2.9068 H       1  UNL1        0.0000
     19 C           1.7868    7.0670    0.5497 C.3     1  UNL1        0.0000
     20 H           2.2890    6.5113   -0.2360 H       1  UNL1        0.0000
     21 H           0.9291    7.5647    0.1076 H       1  UNL1        0.0000
     22 H           1.4300    6.3471    1.2821 H       1  UNL1        0.0000
@<TRIPOS>BOND
     1    12    11    1
     2    14    11    1
     3    20    19    1
     4    11    13    1
     5    11     1    1
     6    21    19    1
     7    19    22    1
     8    19     1    1
     9     4     3    1
    10     1     2    1
    11     1    15    1
    12     3     2    2
    13     3     5    1
    14    17    15    1
    15     2     9    1
    16    15    18    1
    17    15    16    1
    18     6     5    1
    19     5     7    2
    20     9     7    1
    21     9    10    1
    22     7     8    1
