@<TRIPOS>MOLECULE
2,3,5,7,9
 22 22 0 0 0
SMALL
GASTEIGER

@<TRIPOS>ATOM
      1 SI          4.2903    5.5797    7.3854 Si      1  UNL1        0.0000
      2 C           4.5346    4.6350    5.7764 C.3     1  UNL1        0.0000
      3 C           5.7491    4.3993    5.0866 C.2     1  UNL1        0.0000
      4 H           6.7155    4.7906    5.3750 H       1  UNL1        0.0000
      5 C           5.5288    3.4553    4.0741 C.2     1  UNL1        0.0000
      6 H           6.2826    3.0136    3.4324 H       1  UNL1        0.0000
      7 C           4.1811    3.0396    4.1576 C.2     1  UNL1        0.0000
      8 H           3.7287    2.2309    3.5981 H       1  UNL1        0.0000
      9 C           3.5699    3.7657    5.1900 C.2     1  UNL1        0.0000
     10 H           2.5703    3.5920    5.5681 H       1  UNL1        0.0000
     11 C           5.9965    5.9173    8.1819 C.3     1  UNL1        0.0000
     12 H           6.6096    6.5789    7.5771 H       1  UNL1        0.0000
     13 H           6.5535    4.9978    8.3334 H       1  UNL1        0.0000
     14 H           5.8746    6.3891    9.1515 H       1  UNL1        0.0000
     15 C           3.2601    4.4856    8.5672 C.3     1  UNL1        0.0000
     16 H           3.6812    3.4893    8.6605 H       1  UNL1        0.0000
     17 H           2.2375    4.3796    8.2184 H       1  UNL1        0.0000
     18 H           3.2218    4.9212    9.5606 H       1  UNL1        0.0000
     19 C           3.3679    7.2392    7.1332 C.3     1  UNL1        0.0000
     20 H           2.6247    7.1539    6.3414 H       1  UNL1        0.0000
     21 H           4.0481    8.0439    6.8676 H       1  UNL1        0.0000
     22 H           2.8543    7.5381    8.0423 H       1  UNL1        0.0000
@<TRIPOS>BOND
     1     6     5    1
     2     8     7    1
     3     5     7    1
     4     5     3    2
     5     7     9    2
     6     3     4    1
     7     3     2    1
     8     9    10    1
     9     9     2    1
    10     2     1    1
    11    20    19    1
    12    21    19    1
    13    19     1    1
    14    19    22    1
    15     1    11    1
    16     1    15    1
    17    12    11    1
    18    11    13    1
    19    11    14    1
    20    17    15    1
    21    15    16    1
    22    15    18    1
