@<TRIPOS>MOLECULE
1,3,5,7,9
 10 10 0 0 0
SMALL
GASTEIGER

@<TRIPOS>ATOM
      1 C           9.3787    6.5687    1.4769 C.2     1  UNL1       -0.0654
      2 H           9.2543    5.9264    2.3405 H       1  UNL1        0.0615
      3 C           8.9093    7.8904    1.3608 C.2     1  UNL1       -0.0763
      4 H           8.3424    8.4281    2.1105 H       1  UNL1        0.0578
      5 C           9.1773    8.3359    0.0442 C.3     1  UNL1        0.0054
      6 H           8.7966    9.2440   -0.4012 H       1  UNL1        0.0394
      7 C           9.8100    7.2765   -0.6473 C.2     1  UNL1       -0.0763
      8 H          10.0107    7.2485   -1.7112 H       1  UNL1        0.0578
      9 C           9.9402    6.1909    0.2434 C.2     1  UNL1       -0.0654
     10 H          10.2799    5.1941   -0.0119 H       1  UNL1        0.0615
@<TRIPOS>BOND
     1     8     7    1
     2     7     5    1
     3     7     9    2
     4     6     5    1
     5    10     9    1
     6     5     3    1
     7     9     1    1
     8     3     1    2
     9     3     4    1
    10     1     2    1
