@<TRIPOS>MOLECULE
1,3,5,7,9
 10 10 0 0 0
SMALL
GASTEIGER

@<TRIPOS>ATOM
      1 C          13.7934    7.3879    1.4921 C.2     1  UNL1       -0.0654
      2 H          14.2520    7.3063    2.4706 H       1  UNL1        0.0615
      3 C          13.2430    8.1411   -0.5930 C.3     1  UNL1        0.0054
      4 H          13.2513    8.7347   -1.4978 H       1  UNL1        0.0394
      5 C          13.8332    8.5118    0.6436 C.2     1  UNL1       -0.0763
      6 H          14.3540    9.4400    0.8409 H       1  UNL1        0.0578
      7 C          13.1608    6.3332    0.8006 C.2     1  UNL1       -0.0654
      8 H          13.0660    5.3129    1.1593 H       1  UNL1        0.0615
      9 C          12.8557    6.7907   -0.4994 C.2     1  UNL1       -0.0763
     10 H          12.5005    6.1778   -1.3183 H       1  UNL1        0.0578
@<TRIPOS>BOND
     1     4     3    1
     2    10     9    1
     3     3     9    1
     4     3     5    1
     5     9     7    2
     6     5     6    1
     7     5     1    2
     8     7     8    1
     9     7     1    1
    10     1     2    1
