@<TRIPOS>MOLECULE
3,5,6,15,16
 40 41 0 0 0
SMALL
GASTEIGER

@<TRIPOS>ATOM
      1 SI          4.8232   12.6866   17.1575 Si      1  UNL1        0.0000
      2 SI          9.1355    9.5970   14.6559 Si      1  UNL1        0.0000
      3 C           6.6628   11.0092   15.5368 C.3     1  UNL1        0.0000
      4 H           6.0737   10.1071   15.6531 H       1  UNL1        0.0000
      5 C           6.2722   12.2805   16.0340 C.3     1  UNL1        0.0000
      6 C           7.4357   13.1249   15.9122 C.ar    1  UNL1        0.0000
      7 C           7.6745   14.4556   16.2972 C.ar    1  UNL1        0.0000
      8 H           6.8888   15.0396   16.7540 H       1  UNL1        0.0000
      9 C           8.9164   14.9997   16.0797 C.ar    1  UNL1        0.0000
     10 H           9.1141   16.0197   16.3740 H       1  UNL1        0.0000
     11 C           9.9404   14.2574   15.4706 C.ar    1  UNL1        0.0000
     12 H          10.9002   14.7249   15.3085 H       1  UNL1        0.0000
     13 C           9.7386   12.9590   15.0720 C.ar    1  UNL1        0.0000
     14 H          10.5275   12.4039   14.5845 H       1  UNL1        0.0000
     15 C           8.4841   12.3640   15.2925 C.ar    1  UNL1        0.0000
     16 C           7.9859   11.0362   15.0240 C.3     1  UNL1        0.0000
     17 C           3.5635   13.8359   16.2850 C.3     1  UNL1        0.0000
     18 H           4.0085   14.3029   15.4078 H       1  UNL1        0.0000
     19 H           3.2478   14.6318   16.9527 H       1  UNL1        0.0000
     20 H           2.6633   13.3144   15.9731 H       1  UNL1        0.0000
     21 C           4.0018   11.0623   17.7536 C.3     1  UNL1        0.0000
     22 H           4.6975   10.4758   18.3454 H       1  UNL1        0.0000
     23 H           3.6406   10.4312   16.9501 H       1  UNL1        0.0000
     24 H           3.1529   11.2940   18.3883 H       1  UNL1        0.0000
     25 C           5.4574   13.5482   18.7457 C.3     1  UNL1        0.0000
     26 H           6.4416   13.1901   19.0322 H       1  UNL1        0.0000
     27 H           4.7840   13.3600   19.5766 H       1  UNL1        0.0000
     28 H           5.5247   14.6242   18.6235 H       1  UNL1        0.0000
     29 C           8.3079    7.9149   15.0520 C.3     1  UNL1        0.0000
     30 H           7.6774    7.5383   14.2559 H       1  UNL1        0.0000
     31 H           7.7085    7.9686   15.9553 H       1  UNL1        0.0000
     32 H           9.0796    7.1721   15.2249 H       1  UNL1        0.0000
     33 C           9.7313    9.7010   12.8373 C.3     1  UNL1        0.0000
     34 H           9.3918   10.6242   12.3678 H       1  UNL1        0.0000
     35 H           9.3856    8.8654   12.2354 H       1  UNL1        0.0000
     36 H          10.8159    9.6934   12.7886 H       1  UNL1        0.0000
     37 C          10.6394    9.6666   15.8391 C.3     1  UNL1        0.0000
     38 H          11.2452   10.5538   15.6931 H       1  UNL1        0.0000
     39 H          11.2818    8.8041   15.6870 H       1  UNL1        0.0000
     40 H          10.3224    9.6595   16.8780 H       1  UNL1        0.0000
@<TRIPOS>BOND
     1    35    33    1
     2    34    33    1
     3    36    33    1
     4    33     2    1
     5    30    29    1
     6    14    13    1
     7     2    16    1
     8     2    29    1
     9     2    37    1
    10    16    15    1
    11    16     3    1
    12    29    32    1
    13    29    31    1
    14    13    15   ar
    15    13    11   ar
    16    15     6   ar
    17    12    11    1
    18    18    17    1
    19    11     9   ar
    20     3     4    1
    21     3     5    1
    22    39    37    1
    23    38    37    1
    24    37    40    1
    25     6     5    1
    26     6     7   ar
    27    20    17    1
    28     5     1    1
    29     9     7   ar
    30     9    10    1
    31    17    19    1
    32    17     1    1
    33     7     8    1
    34    23    21    1
    35     1    21    1
    36     1    25    1
    37    21    22    1
    38    21    24    1
    39    28    25    1
    40    25    26    1
    41    25    27    1
