@<TRIPOS>MOLECULE
1,2,3,4,5
 25 25 0 0 0
SMALL
GASTEIGER

@<TRIPOS>ATOM
      1 C           5.3891   12.5581   11.4943 C.3     1  UNL1       -0.0053
      2 C           4.3843   12.4777   12.5001 C.3     1  UNL1        0.0052
      3 C           4.5151   11.2181   13.1482 C.2     1  UNL1       -0.0658
      4 C           5.5876   10.5098   12.5244 C.2     1  UNL1       -0.0658
      5 C           6.1177   11.3339   11.4926 C.3     1  UNL1        0.0052
      6 C           5.5821   13.6934   10.5300 C.3     1  UNL1       -0.0574
      7 H           5.0525   13.4988    9.5942 H       1  UNL1        0.0236
      8 H           6.6408   13.8244   10.2995 H       1  UNL1        0.0236
      9 H           5.2017   14.6231   10.9530 H       1  UNL1        0.0236
     10 C           3.2478   13.4497   12.6544 C.3     1  UNL1       -0.0545
     11 H           2.6677   13.4791   11.7299 H       1  UNL1        0.0239
     12 H           3.6075   14.4595   12.8542 H       1  UNL1        0.0239
     13 H           2.5844   13.1484   13.4606 H       1  UNL1        0.0239
     14 C           3.4981   10.6265   14.0843 C.3     1  UNL1       -0.0430
     15 H           2.6102   10.3259   13.5223 H       1  UNL1        0.0275
     16 H           3.1892   11.3448   14.8415 H       1  UNL1        0.0275
     17 H           3.8836    9.7385   14.5812 H       1  UNL1        0.0275
     18 C           5.8866    9.0471   12.6934 C.3     1  UNL1       -0.0430
     19 H           5.2805    8.4624   11.9963 H       1  UNL1        0.0275
     20 H           5.6562    8.7014   13.6989 H       1  UNL1        0.0275
     21 H           6.9334    8.8369   12.4856 H       1  UNL1        0.0275
     22 C           7.0874   10.9201   10.4214 C.3     1  UNL1       -0.0545
     23 H           6.5523   10.7877    9.4782 H       1  UNL1        0.0239
     24 H           7.5721    9.9789   10.6690 H       1  UNL1        0.0239
     25 H           7.8553   11.6779   10.2661 H       1  UNL1        0.0239
@<TRIPOS>BOND
     1    23    22    1
     2     7     6    1
     3    25    22    1
     4     8     6    1
     5    22    24    1
     6    22     5    1
     7     6     9    1
     8     6     1    1
     9     5     1    1
    10     5     4    1
    11     1     2    1
    12    11    10    1
    13    19    18    1
    14    21    18    1
    15     2    10    1
    16     2     3    1
    17     4    18    1
    18     4     3    2
    19    10    12    1
    20    10    13    1
    21    18    20    1
    22     3    14    1
    23    15    14    1
    24    14    17    1
    25    14    16    1
