@<TRIPOS>MOLECULE
1,2,4,6,8
 22 22 0 0 0
SMALL
GASTEIGER

@<TRIPOS>ATOM
      1 C          -1.8142    6.9434    4.5113 C.2     1  UNL1       -0.0565
      2 C          -3.1141    7.5337    4.5295 C.3     1  UNL1        0.0092
      3 H          -3.3108    8.5818    4.7049 H       1  UNL1        0.0397
      4 C          -4.0455    6.6437    3.9186 C.2     1  UNL1       -0.0760
      5 H          -5.0363    6.9013    3.5724 H       1  UNL1        0.0578
      6 C          -3.3171    5.4924    3.5393 C.2     1  UNL1       -0.0651
      7 H          -3.6851    4.7053    2.8937 H       1  UNL1        0.0615
      8 C          -1.9648    5.6826    3.9013 C.2     1  UNL1       -0.0617
      9 H          -1.1578    5.0295    3.6138 H       1  UNL1        0.0617
     10 C          -0.4895    7.6395    4.7298 C.3     1  UNL1       -0.0158
     11 C           0.4838    6.7463    5.5034 C.3     1  UNL1       -0.0563
     12 H           1.4491    7.2400    5.5960 H       1  UNL1        0.0238
     13 H           0.6302    5.7981    4.9970 H       1  UNL1        0.0238
     14 H           0.1043    6.5450    6.5013 H       1  UNL1        0.0238
     15 C           0.0959    7.9377    3.3381 C.3     1  UNL1       -0.0563
     16 H           1.0364    8.4764    3.4316 H       1  UNL1        0.0238
     17 H          -0.5952    8.5454    2.7574 H       1  UNL1        0.0238
     18 H           0.2788    7.0148    2.7936 H       1  UNL1        0.0238
     19 C          -0.6501    8.9626    5.4843 C.3     1  UNL1       -0.0563
     20 H           0.3249    9.4258    5.6211 H       1  UNL1        0.0238
     21 H          -1.0861    8.7999    6.4664 H       1  UNL1        0.0238
     22 H          -1.2744    9.6590    4.9291 H       1  UNL1        0.0238
@<TRIPOS>BOND
     1    17    15    1
     2    18    15    1
     3     7     6    1
     4    15    16    1
     5    15    10    1
     6     6     8    1
     7     6     4    2
     8     5     4    1
     9     9     8    1
    10     8     1    2
    11     4     2    1
    12     1     2    1
    13     1    10    1
    14     2     3    1
    15    10    19    1
    16    10    11    1
    17    22    19    1
    18    13    11    1
    19    19    20    1
    20    19    21    1
    21    11    12    1
    22    11    14    1
