@<TRIPOS>MOLECULE
1,2,3,6,7
 22 22 0 0 0
SMALL
GASTEIGER

@<TRIPOS>ATOM
      1 C          -4.8702    6.9434    7.2463 C.3     1  UNL1        0.0071
      2 C          -3.5704    7.5337    7.2281 C.3     1  UNL1       -0.0196
      3 C          -2.6389    6.6438    7.8392 C.3     1  UNL1       -0.0124
      4 H          -3.3737    8.5819    7.0527 H       1  UNL1        0.0318
      5 H          -1.6481    6.9014    8.1853 H       1  UNL1        0.0352
      6 C          -3.3674    5.4925    8.2186 C.2     1  UNL1       -0.0834
      7 C          -4.7197    5.6826    7.8563 C.2     1  UNL1       -0.0798
      8 C          -6.1949    7.6395    7.0278 C.3     1  UNL1       -0.0275
      9 C          -7.1682    6.7463    6.2541 C.3     1  UNL1       -0.0592
     10 H          -8.1335    7.2399    6.1615 H       1  UNL1        0.0235
     11 H          -7.3146    5.7981    6.7605 H       1  UNL1        0.0235
     12 H          -6.7888    6.5450    5.2563 H       1  UNL1        0.0235
     13 C          -6.7804    7.9376    8.4195 C.3     1  UNL1       -0.0592
     14 H          -7.7208    8.4764    8.3260 H       1  UNL1        0.0235
     15 H          -6.0892    8.5454    9.0001 H       1  UNL1        0.0235
     16 H          -6.9633    7.0147    8.9640 H       1  UNL1        0.0235
     17 C          -6.0343    8.9626    6.2733 C.3     1  UNL1       -0.0592
     18 H          -7.0094    9.4258    6.1365 H       1  UNL1        0.0235
     19 H          -5.5983    8.7999    5.2912 H       1  UNL1        0.0235
     20 H          -5.4100    9.6590    6.8285 H       1  UNL1        0.0235
     21 H          -2.9994    4.7054    8.8640 H       1  UNL1        0.0572
     22 H          -5.5267    5.0295    8.1437 H       1  UNL1        0.0575
@<TRIPOS>BOND
     1    12     9    1
     2    19    17    1
     3    18    17    1
     4    10     9    1
     5     9    11    1
     6     9     8    1
     7    17    20    1
     8    17     8    1
     9     8     1    1
    10     8    13    1
    11     4     2    1
    12     2     1    1
    13     2     3    1
    14     1     7    1
    15     3     5    1
    16     3     6    1
    17     7    22    1
    18     7     6    2
    19     6    21    1
    20    14    13    1
    21    13    16    1
    22    13    15    1
