@<TRIPOS>MOLECULE
1,2,3,4,5
 25 25 0 0 0
SMALL
GASTEIGER

@<TRIPOS>ATOM
      1 C          12.9437    2.6687   12.1217 C.2     1  UNL1       -0.0584
      2 C          12.1728    3.7545   12.6465 C.3     1  UNL1        0.0231
      3 C          11.6113    4.4651   11.5366 C.2     1  UNL1       -0.0584
      4 C          12.0127    3.8064   10.3374 C.2     1  UNL1       -0.0477
      5 C          12.8264    2.6823   10.6989 C.2     1  UNL1       -0.0477
      6 C          13.9711    1.8623   12.8612 C.3     1  UNL1       -0.0424
      7 H          14.0211    0.8390   12.4892 H       1  UNL1        0.0275
      8 H          13.7722    1.8295   13.9311 H       1  UNL1        0.0275
      9 H          14.9536    2.3190   12.7159 H       1  UNL1        0.0275
     10 C          12.2340    4.3111   14.0397 C.3     1  UNL1       -0.0510
     11 H          12.7899    3.6544   14.7046 H       1  UNL1        0.0242
     12 H          11.2400    4.4617   14.4607 H       1  UNL1        0.0242
     13 H          12.7420    5.2779   14.0198 H       1  UNL1        0.0242
     14 C          10.9423    5.8049   11.6209 C.3     1  UNL1       -0.0424
     15 H          11.6946    6.5952   11.5538 H       1  UNL1        0.0275
     16 H          10.4114    5.9189   12.5640 H       1  UNL1        0.0275
     17 H          10.2312    5.9438   10.8085 H       1  UNL1        0.0275
     18 C          11.8620    4.3698    8.9561 C.3     1  UNL1       -0.0395
     19 H          10.9261    4.9148    8.8524 H       1  UNL1        0.0278
     20 H          11.8875    3.5897    8.1988 H       1  UNL1        0.0278
     21 H          12.6840    5.0627    8.7598 H       1  UNL1        0.0278
     22 C          13.7515    1.9448    9.7752 C.3     1  UNL1       -0.0395
     23 H          14.7311    2.4297    9.7867 H       1  UNL1        0.0278
     24 H          13.3822    1.9479    8.7534 H       1  UNL1        0.0278
     25 H          13.8854    0.9094   10.0838 H       1  UNL1        0.0278
@<TRIPOS>BOND
     1    20    18    1
     2    24    22    1
     3    21    18    1
     4    19    18    1
     5    18     4    1
     6    22    23    1
     7    22    25    1
     8    22     5    1
     9     4     5    1
    10     4     3    2
    11     5     1    2
    12    17    14    1
    13     3    14    1
    14     3     2    1
    15    15    14    1
    16    14    16    1
    17     1     2    1
    18     1     6    1
    19     7     6    1
    20     2    10    1
    21     9     6    1
    22     6     8    1
    23    13    10    1
    24    10    12    1
    25    10    11    1
