@<TRIPOS>MOLECULE
6,7,8,10,12
 63 64 0 0 0
SMALL
GASTEIGER

@<TRIPOS>ATOM
      1 SI          3.8371    6.6497    3.5894 Si      1  UNL1        0.0000
      2 SI          4.3091    9.2799    8.8104 Si      1  UNL1        0.0000
      3 N           4.4137   14.4684    3.8431 N.am    1  UNL1        0.0000
      4 N           4.8607   11.6067    4.2726 N.3     1  UNL1        0.0000
      5 O           4.1783    6.6906    6.8244 O.2     1  UNL1        0.0000
      6 C           4.2188    9.4142    4.6538 C.3     1  UNL1        0.0000
      7 C           4.0602    9.1193    6.9455 C.3     1  UNL1        0.0000
      8 C           3.8522    8.0618    4.8403 C.3     1  UNL1        0.0000
      9 C           4.7668   10.3112    3.5952 C.3     1  UNL1        0.0000
     10 C           4.0650    7.7799    6.2930 C.2     1  UNL1        0.0000
     11 C           5.6955   13.9224    4.2047 C.3     1  UNL1        0.0000
     12 C           4.3319   10.0595    5.9173 C.3     1  UNL1        0.0000
     13 C           5.8698   12.4776    3.7213 C.3     1  UNL1        0.0000
     14 C           4.9517   11.4043    5.7243 C.3     1  UNL1        0.0000
     15 C           3.3683   14.4923    4.7104 C.2     1  UNL1        0.0000
     16 C           0.5630   13.8171    5.4788 C.3     1  UNL1        0.0000
     17 C           1.0124   15.0763    4.7414 C.3     1  UNL1        0.0000
     18 C           0.0239   15.4293    3.6296 C.3     1  UNL1        0.0000
     19 C           1.1762   16.2480    5.7090 C.3     1  UNL1        0.0000
     20 C           4.3985   11.1297    9.2608 C.3     1  UNL1        0.0000
     21 C           2.8086    8.4454    9.6319 C.3     1  UNL1        0.0000
     22 C           5.5613    5.8348    3.6539 C.3     1  UNL1        0.0000
     23 C           5.9368    8.3880    9.2478 C.3     1  UNL1        0.0000
     24 C           2.4638    5.4318    4.0841 C.3     1  UNL1        0.0000
     25 C           3.4926    7.3812    1.8605 C.3     1  UNL1        0.0000
     26 O           3.4666   14.2853    5.8968 O.2     1  UNL1        0.0000
     27 O           2.2565   14.8337    4.0409 O.3     1  UNL1        0.0000
     28 H           5.7678   12.4555    2.6318 H       1  UNL1        0.0000
     29 H           4.4384   12.2188    6.2379 H       1  UNL1        0.0000
     30 H           4.1425   10.4068    2.7036 H       1  UNL1        0.0000
     31 H           5.7604   13.9718    5.2926 H       1  UNL1        0.0000
     32 H          -0.4323   13.9650    5.8879 H       1  UNL1        0.0000
     33 H          -0.0732   14.5951    2.9401 H       1  UNL1        0.0000
     34 H           1.5215   17.1303    5.1741 H       1  UNL1        0.0000
     35 H           6.0862    8.3481   10.3224 H       1  UNL1        0.0000
     36 H           2.7175    7.4201    9.2868 H       1  UNL1        0.0000
     37 H           2.5873    5.1342    5.1206 H       1  UNL1        0.0000
     38 H           4.3903   11.2597   10.3377 H       1  UNL1        0.0000
     39 H           5.7747    5.4974    4.6634 H       1  UNL1        0.0000
     40 H           4.3263    7.9741    1.4985 H       1  UNL1        0.0000
     41 H           6.0015   11.3735    6.0704 H       1  UNL1        0.0000
     42 H           5.7563    9.9266    3.2835 H       1  UNL1        0.0000
     43 H           6.8945   12.1438    3.9758 H       1  UNL1        0.0000
     44 H           6.4852   14.5434    3.7707 H       1  UNL1        0.0000
     45 H           1.8848    8.9613    9.3827 H       1  UNL1        0.0000
     46 H           5.6144    4.9729    2.9957 H       1  UNL1        0.0000
     47 H           0.3776   16.2962    3.0775 H       1  UNL1        0.0000
     48 H           1.4788    5.8796    3.9822 H       1  UNL1        0.0000
     49 H           6.8006    8.8826    8.8120 H       1  UNL1        0.0000
     50 H           1.2501   13.5982    6.2900 H       1  UNL1        0.0000
     51 H           5.3034   11.5952    8.8836 H       1  UNL1        0.0000
     52 H           1.9008   15.9974    6.4789 H       1  UNL1        0.0000
     53 H           3.3197    6.5896    1.1396 H       1  UNL1        0.0000
     54 H           0.5429   12.9687    4.7972 H       1  UNL1        0.0000
     55 H          -0.9493   15.6526    4.0561 H       1  UNL1        0.0000
     56 H           0.2231   16.4703    6.1804 H       1  UNL1        0.0000
     57 H           2.8967    8.4251   10.7136 H       1  UNL1        0.0000
     58 H           5.9138    7.3690    8.8750 H       1  UNL1        0.0000
     59 H           2.4843    4.5332    3.4753 H       1  UNL1        0.0000
     60 H           3.5552   11.6814    8.8583 H       1  UNL1        0.0000
     61 H           6.3488    6.5238    3.3605 H       1  UNL1        0.0000
     62 H           2.6117    8.0159    1.8671 H       1  UNL1        0.0000
     63 H           4.1815   14.5237    2.8638 H       1  UNL1        0.0000
@<TRIPOS>BOND
     1    53    25    1
     2    40    25    1
     3    25    62    1
     4    25     1    1
     5    28    13    1
     6    30     9    1
     7    63     3    1
     8    33    18    1
     9    46    22    1
    10    47    18    1
    11    42     9    1
    12    61    22    1
    13    59    24    1
    14     1    22    1
    15     1    24    1
    16     1     8    1
    17     9     4    1
    18     9     6    1
    19    18    55    1
    20    18    17    1
    21    22    39    1
    22    13    43    1
    23    13    11    1
    24    13     4    1
    25    44    11    1
    26     3    11    1
    27     3    15   am
    28    48    24    1
    29    27    15    1
    30    27    17    1
    31    24    37    1
    32    11    31    1
    33     4    14    1
    34     6     8    1
    35     6    12    1
    36    15    26    2
    37    17    16    1
    38    17    19    1
    39    54    16    1
    40     8    10    1
    41    34    19    1
    42    16    32    1
    43    16    50    1
    44    19    56    1
    45    19    52    1
    46    14    12    1
    47    14    41    1
    48    14    29    1
    49    12     7    1
    50    10     5    2
    51    10     7    1
    52     7     2    1
    53     2    23    1
    54     2    20    1
    55     2    21    1
    56    49    23    1
    57    60    20    1
    58    58    23    1
    59    51    20    1
    60    23    35    1
    61    20    38    1
    62    36    21    1
    63    45    21    1
    64    21    57    1
