@<TRIPOS>MOLECULE
1,3,5,7,9
 10 10 0 0 0
SMALL
GASTEIGER

@<TRIPOS>ATOM
      1 C          -6.8905    2.5087   -6.7927 C.2     1  UNL1       -0.0837
      2 H          -7.8213    2.4782   -7.3459 H       1  UNL1        0.0572
      3 C          -6.6164    3.3506   -5.6936 C.2     1  UNL1       -0.0837
      4 H          -7.3081    4.0536   -5.2455 H       1  UNL1        0.0572
      5 C          -5.2499    3.2123   -5.3684 C.3     1  UNL1       -0.0127
      6 H          -4.7085    3.8301   -4.6627 H       1  UNL1        0.0352
      7 C          -4.6799    2.2788   -6.2629 C.3     1  UNL1       -0.0235
      8 H          -3.6215    2.0580   -6.3576 H       1  UNL1        0.0315
      9 C          -5.6974    1.8418   -7.1420 C.3     1  UNL1       -0.0127
     10 H          -5.5571    1.2235   -8.0223 H       1  UNL1        0.0352
@<TRIPOS>BOND
     1    10     9    1
     2     2     1    1
     3     9     1    1
     4     9     7    1
     5     1     3    2
     6     8     7    1
     7     7     5    1
     8     3     5    1
     9     3     4    1
    10     5     6    1
