@<TRIPOS>MOLECULE
1,3,5,7,9
 10 10 0 0 0
SMALL
GASTEIGER

@<TRIPOS>ATOM
      1 C          -5.3913   -0.9464   -3.5644 C.3     1  UNL1        0.0054
      2 H          -5.2798   -0.9413   -2.4869 H       1  UNL1        0.0394
      3 C          -6.5030   -1.4523   -4.2721 C.2     1  UNL1       -0.0763
      4 H          -7.3945   -1.8804   -3.8296 H       1  UNL1        0.0578
      5 C          -6.1920   -1.4273   -5.6506 C.2     1  UNL1       -0.0654
      6 H          -6.7984   -1.8525   -6.4418 H       1  UNL1        0.0615
      7 C          -4.8852   -0.9212   -5.7930 C.2     1  UNL1       -0.0654
      8 H          -4.3091   -0.9056   -6.7109 H       1  UNL1        0.0615
      9 C          -4.3912   -0.6112   -4.5077 C.2     1  UNL1       -0.0763
     10 H          -3.3668   -0.3423   -4.2768 H       1  UNL1        0.0578
@<TRIPOS>BOND
     1     8     7    1
     2     6     5    1
     3     7     5    1
     4     7     9    2
     5     5     3    2
     6     9    10    1
     7     9     1    1
     8     3     4    1
     9     3     1    1
    10     1     2    1
