@<TRIPOS>MOLECULE
1,3,5,7,9
 10 10 0 0 0
SMALL
GASTEIGER

@<TRIPOS>ATOM
      1 C           9.4057    2.3077    8.5432 C.2     1  UNL1       -0.0763
      2 H           9.7728    2.9832    9.3067 H       1  UNL1        0.0578
      3 C           9.5174    2.5047    7.1466 C.2     1  UNL1       -0.0654
      4 H          10.0100    3.3440    6.6669 H       1  UNL1        0.0615
      5 C           9.0391    1.3384    6.5065 C.2     1  UNL1       -0.0654
      6 H           9.1403    1.1061    5.4531 H       1  UNL1        0.0615
      7 C           8.6056    0.4383    7.5037 C.2     1  UNL1       -0.0763
      8 H           8.2780   -0.5809    7.3396 H       1  UNL1        0.0578
      9 C           8.8430    1.0358    8.7630 C.3     1  UNL1        0.0054
     10 H           8.7207    0.5524    9.7246 H       1  UNL1        0.0394
@<TRIPOS>BOND
     1     6     5    1
     2     5     3    1
     3     5     7    2
     4     4     3    1
     5     3     1    2
     6     8     7    1
     7     7     9    1
     8     1     9    1
     9     1     2    1
    10     9    10    1
