@<TRIPOS>MOLECULE
1,3,5,7,9
 10 10 0 0 0
SMALL
GASTEIGER

@<TRIPOS>ATOM
      1 C           5.0152    3.3662    6.5058 C.2     1  UNL1       -0.0763
      2 H           4.2641    3.9312    7.0458 H       1  UNL1        0.0578
      3 C           6.1087    3.9142    5.7974 C.2     1  UNL1       -0.0654
      4 H           6.3302    4.9699    5.6956 H       1  UNL1        0.0615
      5 C           6.7805    2.8613    5.1443 C.2     1  UNL1       -0.0654
      6 H           7.5746    2.9812    4.4154 H       1  UNL1        0.0615
      7 C           6.0988    1.6558    5.4451 C.2     1  UNL1       -0.0763
      8 H           6.2887    0.6873    4.9967 H       1  UNL1        0.0578
      9 C           4.9988    1.9742    6.2713 C.3     1  UNL1        0.0054
     10 H           4.2220    1.2873    6.5840 H       1  UNL1        0.0394
@<TRIPOS>BOND
     1     6     5    1
     2     8     7    1
     3     5     7    2
     4     5     3    1
     5     7     9    1
     6     4     3    1
     7     3     1    2
     8     9     1    1
     9     9    10    1
    10     1     2    1
