@<TRIPOS>MOLECULE
1,2,3,4,5
 13 13 0 0 0
SMALL
GASTEIGER

@<TRIPOS>ATOM
      1 C           3.9911   -1.0157    5.5724 C.3     1  UNL1       -0.0204
      2 C           5.4018   -0.9284    5.6254 C.3     1  UNL1       -0.0124
      3 C           5.8400   -0.2869    4.4448 C.2     1  UNL1       -0.0834
      4 C           4.7016    0.0104    3.6627 C.2     1  UNL1       -0.0806
      5 C           3.5486   -0.4368    4.3597 C.3     1  UNL1       -0.0013
      6 C           2.1660   -0.5224    3.7917 C.3     1  UNL1       -0.0550
      7 H           3.3667   -1.5599    6.2691 H       1  UNL1        0.0318
      8 H           6.0382   -1.4048    6.3599 H       1  UNL1        0.0352
      9 H           6.8676   -0.1839    4.1210 H       1  UNL1        0.0572
     10 H           4.7205    0.3479    2.6352 H       1  UNL1        0.0575
     11 H           1.9639    0.3088    3.1165 H       1  UNL1        0.0238
     12 H           1.4122   -0.5225    4.5784 H       1  UNL1        0.0238
     13 H           2.0638   -1.4520    3.2258 H       1  UNL1        0.0238
@<TRIPOS>BOND
     1    10     4    1
     2    11     6    1
     3    13     6    1
     4     4     5    1
     5     4     3    2
     6     6     5    1
     7     6    12    1
     8     9     3    1
     9     5     1    1
    10     3     2    1
    11     1     2    1
    12     1     7    1
    13     2     8    1
