@<TRIPOS>MOLECULE
1,2,3,4,5
 25 25 0 0 0
SMALL
GASTEIGER

@<TRIPOS>ATOM
      1 C           4.8445   17.2979    1.2782 C.3     1  UNL1        0.0052
      2 C           6.2558   17.4700    1.0574 C.2     1  UNL1       -0.0658
      3 C           6.8038   16.2162    0.6797 C.2     1  UNL1       -0.0658
      4 C           5.7199   15.2632    0.6167 C.3     1  UNL1        0.0052
      5 C           4.5131   15.9418    0.9451 C.3     1  UNL1       -0.0053
      6 C           3.8487   18.4026    1.4820 C.3     1  UNL1       -0.0545
      7 H           4.2437   19.1755    2.1413 H       1  UNL1        0.0239
      8 H           2.9351   18.0170    1.9306 H       1  UNL1        0.0239
      9 H           3.5952   18.8626    0.5235 H       1  UNL1        0.0239
     10 C           6.9555   18.7950    0.9858 C.3     1  UNL1       -0.0430
     11 H           7.9743   18.7475    1.3687 H       1  UNL1        0.0275
     12 H           6.4125   19.5518    1.5482 H       1  UNL1        0.0275
     13 H           7.0013   19.1176   -0.0577 H       1  UNL1        0.0275
     14 C           8.1685   15.9838    0.0961 C.3     1  UNL1       -0.0430
     15 H           8.0917   15.9110   -0.9919 H       1  UNL1        0.0275
     16 H           8.6155   15.0585    0.4617 H       1  UNL1        0.0275
     17 H           8.8419   16.8064    0.3300 H       1  UNL1        0.0275
     18 C           5.8199   13.9070   -0.0190 C.3     1  UNL1       -0.0545
     19 H           5.1258   13.1990    0.4322 H       1  UNL1        0.0239
     20 H           6.8277   13.5061    0.0740 H       1  UNL1        0.0239
     21 H           5.5812   13.9864   -1.0828 H       1  UNL1        0.0239
     22 C           3.1208   15.4060    0.7878 C.3     1  UNL1       -0.0574
     23 H           2.6744   15.8158   -0.1210 H       1  UNL1        0.0236
     24 H           2.4903   15.6848    1.6315 H       1  UNL1        0.0236
     25 H           3.1251   14.3208    0.7066 H       1  UNL1        0.0236
@<TRIPOS>BOND
     1    21    18    1
     2    15    14    1
     3    23    22    1
     4    13    10    1
     5    18    20    1
     6    18    19    1
     7    18     4    1
     8    14    17    1
     9    14    16    1
    10    14     3    1
    11     9     6    1
    12     4     3    1
    13     4     5    1
    14     3     2    2
    15    25    22    1
    16    22     5    1
    17    22    24    1
    18     5     1    1
    19    10     2    1
    20    10    11    1
    21    10    12    1
    22     2     1    1
    23     1     6    1
    24     6     8    1
    25     6     7    1
