@<TRIPOS>MOLECULE
3,5,6,8,9
 62 64 0 0 0
SMALL
GASTEIGER

@<TRIPOS>ATOM
      1 SI          5.4409    6.7499   18.7861 Si      1  UNL1        0.0000
      2 N           4.6283    8.1127   18.0734 N.3     1  UNL1        0.0000
      3 C           4.2013    5.3393   18.9637 C.3     1  UNL1        0.0000
      4 H           4.4301    4.5814   18.2135 H       1  UNL1        0.0000
      5 C           2.8161    5.6123   19.1353 C.3     1  UNL1        0.0000
      6 C           1.7340    4.7458   18.8336 C.3     1  UNL1        0.0000
      7 H           0.7449    5.1796   18.9487 H       1  UNL1        0.0000
      8 C           1.7634    3.3477   18.6418 C.3     1  UNL1        0.0000
      9 C           2.8970    2.5333   18.3969 C.3     1  UNL1        0.0000
     10 H           3.7147    2.9350   17.7963 H       1  UNL1        0.0000
     11 C           2.6478    1.0634   18.0557 C.3     1  UNL1        0.0000
     12 H           3.2999    0.4031   18.6361 H       1  UNL1        0.0000
     13 H           2.8891    0.8836   17.0010 H       1  UNL1        0.0000
     14 C           1.1950    0.6837   18.3109 C.3     1  UNL1        0.0000
     15 H           1.0195   -0.3852   18.1738 H       1  UNL1        0.0000
     16 C           0.7598    1.3300   19.6360 C.3     1  UNL1        0.0000
     17 H          -0.1301    0.8696   20.0614 H       1  UNL1        0.0000
     18 H           1.5340    1.4385   20.4071 H       1  UNL1        0.0000
     19 C           0.4643    2.5903   18.7992 C.3     1  UNL1        0.0000
     20 H          -0.3712    3.2285   19.0964 H       1  UNL1        0.0000
     21 C           0.2398    1.6569   17.5782 C.3     1  UNL1        0.0000
     22 C           0.6319    2.1803   16.2031 C.3     1  UNL1        0.0000
     23 H           0.7218    1.3533   15.5009 H       1  UNL1        0.0000
     24 H           1.5705    2.7238   16.2277 H       1  UNL1        0.0000
     25 H          -0.1371    2.8575   15.8357 H       1  UNL1        0.0000
     26 C          -1.1869    1.1203   17.5000 C.3     1  UNL1        0.0000
     27 H          -1.8746    1.9200   17.2295 H       1  UNL1        0.0000
     28 H          -1.5182    0.6924   18.4417 H       1  UNL1        0.0000
     29 H          -1.2489    0.3464   16.7372 H       1  UNL1        0.0000
     30 C           2.4526    6.8782   19.7972 C.ar    1  UNL1        0.0000
     31 C           3.0653    7.2093   21.0089 C.ar    1  UNL1        0.0000
     32 H           3.7763    6.5080   21.4412 H       1  UNL1        0.0000
     33 C           2.7624    8.3958   21.6502 C.ar    1  UNL1        0.0000
     34 H           3.2498    8.6466   22.5828 H       1  UNL1        0.0000
     35 C           1.8277    9.2659   21.1088 C.ar    1  UNL1        0.0000
     36 H           1.5915   10.1927   21.6103 H       1  UNL1        0.0000
     37 C           1.1954    8.9343   19.9216 C.ar    1  UNL1        0.0000
     38 H           0.4624    9.6058   19.4969 H       1  UNL1        0.0000
     39 C           1.5006    7.7524   19.2726 C.ar    1  UNL1        0.0000
     40 H           1.0113    7.5070   18.3409 H       1  UNL1        0.0000
     41 C           6.4221    7.4082   20.2887 C.3     1  UNL1        0.0000
     42 H           7.0114    8.2707   19.9982 H       1  UNL1        0.0000
     43 H           7.1209    6.6578   20.6418 H       1  UNL1        0.0000
     44 H           5.7963    7.7066   21.1215 H       1  UNL1        0.0000
     45 C           6.7923    6.0392   17.6151 C.3     1  UNL1        0.0000
     46 H           6.3684    5.6611   16.6898 H       1  UNL1        0.0000
     47 H           7.3272    5.2182   18.0824 H       1  UNL1        0.0000
     48 H           7.5267    6.7949   17.3541 H       1  UNL1        0.0000
     49 C           3.8432    7.9337   16.8768 C.3     1  UNL1        0.0000
     50 H           2.9623    8.5855   16.9272 H       1  UNL1        0.0000
     51 H           3.4905    6.9002   16.8648 H       1  UNL1        0.0000
     52 C           4.5889    8.2052   15.5683 C.3     1  UNL1        0.0000
     53 H           4.7926    9.2643   15.4422 H       1  UNL1        0.0000
     54 H           3.9866    7.8724   14.7257 H       1  UNL1        0.0000
     55 H           5.5314    7.6671   15.5620 H       1  UNL1        0.0000
     56 C           4.7569    9.4657   18.5563 C.3     1  UNL1        0.0000
     57 H           4.8470    9.4321   19.6435 H       1  UNL1        0.0000
     58 H           3.8346   10.0103   18.3227 H       1  UNL1        0.0000
     59 C           5.9539   10.2357   17.9910 C.3     1  UNL1        0.0000
     60 H           6.8626    9.6555   18.1243 H       1  UNL1        0.0000
     61 H           6.0617   11.1846   18.5121 H       1  UNL1        0.0000
     62 H           5.8312   10.4378   16.9315 H       1  UNL1        0.0000
@<TRIPOS>BOND
     1    54    52    1
     2    53    52    1
     3    23    22    1
     4    55    52    1
     5    52    49    1
     6    25    22    1
     7    22    24    1
     8    22    21    1
     9    46    45    1
    10    29    26    1
    11    51    49    1
    12    49    50    1
    13    49     2    1
    14    62    59    1
    15    13    11    1
    16    27    26    1
    17    48    45    1
    18    26    21    1
    19    26    28    1
    20    21    14    1
    21    21    19    1
    22    45    47    1
    23    45     1    1
    24    10     9    1
    25    59    60    1
    26    59    61    1
    27    59    56    1
    28    11    14    1
    29    11     9    1
    30    11    12    1
    31     2    56    1
    32     2     1    1
    33    15    14    1
    34     4     3    1
    35    14    16    1
    36    58    56    1
    37    40    39    1
    38     9     8    1
    39    56    57    1
    40     8    19    1
    41     8     6    1
    42     1     3    1
    43     1    41    1
    44    19    20    1
    45    19    16    1
    46     6     7    1
    47     6     5    1
    48     3     5    1
    49     5    30    1
    50    39    30   ar
    51    39    37   ar
    52    38    37    1
    53    16    17    1
    54    16    18    1
    55    30    31   ar
    56    37    35   ar
    57    42    41    1
    58    41    43    1
    59    41    44    1
    60    31    32    1
    61    31    33   ar
    62    35    36    1
    63    35    33   ar
    64    33    34    1
