@<TRIPOS>MOLECULE
3,5,6,8,9
 56 58 0 0 0
SMALL
GASTEIGER

@<TRIPOS>ATOM
      1 SI          5.4720    7.1057   17.6031 Si      1  UNL1        0.0000
      2 N           4.7751    8.4426   16.7400 N.3     1  UNL1        0.0000
      3 C           4.2295    5.7172   17.9122 C.3     1  UNL1        0.0000
      4 H           4.4549    4.9065   17.2178 H       1  UNL1        0.0000
      5 C           2.8410    5.9865   18.0685 C.3     1  UNL1        0.0000
      6 C           1.7757    5.0758   17.8426 C.3     1  UNL1        0.0000
      7 H           0.7776    5.4960   17.9259 H       1  UNL1        0.0000
      8 C           1.8328    3.6680   17.7681 C.3     1  UNL1        0.0000
      9 C           2.9825    2.8560   17.5919 C.3     1  UNL1        0.0000
     10 H           3.7886    3.2179   16.9514 H       1  UNL1        0.0000
     11 C           2.7599    1.3575   17.3791 C.3     1  UNL1        0.0000
     12 H           3.4247    0.7615   18.0124 H       1  UNL1        0.0000
     13 H           3.0035    1.0919   16.3433 H       1  UNL1        0.0000
     14 C           1.3146    0.9741   17.6690 C.3     1  UNL1        0.0000
     15 H           1.1591   -0.1056   17.6252 H       1  UNL1        0.0000
     16 C           0.8678    1.7243   18.9341 C.3     1  UNL1        0.0000
     17 H          -0.0136    1.2862   19.3990 H       1  UNL1        0.0000
     18 H           1.6401    1.9130   19.6918 H       1  UNL1        0.0000
     19 C           0.5486    2.9019   17.9921 C.3     1  UNL1        0.0000
     20 H          -0.2996    3.5464   18.2346 H       1  UNL1        0.0000
     21 C           0.3421    1.8629   16.8562 C.3     1  UNL1        0.0000
     22 C           0.7255    2.2734   15.4410 C.3     1  UNL1        0.0000
     23 H           0.8293    1.3912   14.8119 H       1  UNL1        0.0000
     24 H           1.6547    2.8329   15.4176 H       1  UNL1        0.0000
     25 H          -0.0548    2.9038   15.0182 H       1  UNL1        0.0000
     26 C          -1.0748    1.2962   16.8256 C.3     1  UNL1        0.0000
     27 H          -1.7773    2.0598   16.4956 H       1  UNL1        0.0000
     28 H          -1.3961    0.9375   17.7992 H       1  UNL1        0.0000
     29 H          -1.1244    0.4638   16.1259 H       1  UNL1        0.0000
     30 C           2.4525    7.2906   18.6311 C.ar    1  UNL1        0.0000
     31 C           3.0855    7.7485   19.7907 C.ar    1  UNL1        0.0000
     32 H           3.8399    7.1178   20.2555 H       1  UNL1        0.0000
     33 C           2.7423    8.9658   20.3476 C.ar    1  UNL1        0.0000
     34 H           3.2442    9.3126   21.2408 H       1  UNL1        0.0000
     35 C           1.7465    9.7439   19.7747 C.ar    1  UNL1        0.0000
     36 H           1.4759   10.6928   20.2132 H       1  UNL1        0.0000
     37 C           1.1002    9.2925   18.6351 C.ar    1  UNL1        0.0000
     38 H           0.3242    9.8938   18.1823 H       1  UNL1        0.0000
     39 C           1.4489    8.0807   18.0671 C.ar    1  UNL1        0.0000
     40 H           0.9475    7.7435   17.1706 H       1  UNL1        0.0000
     41 C           6.5023    7.8830   19.0122 C.3     1  UNL1        0.0000
     42 H           7.0816    8.7122   18.6189 H       1  UNL1        0.0000
     43 H           7.2130    7.1635   19.4034 H       1  UNL1        0.0000
     44 H           5.9082    8.2560   19.8385 H       1  UNL1        0.0000
     45 C           6.7669    6.2986   16.4371 C.3     1  UNL1        0.0000
     46 H           6.3361    6.0269   15.4787 H       1  UNL1        0.0000
     47 H           7.1828    5.3953   16.8721 H       1  UNL1        0.0000
     48 H           7.5917    6.9752   16.2403 H       1  UNL1        0.0000
     49 C           4.0251    8.2226   15.5314 C.3     1  UNL1        0.0000
     50 H           2.9518    8.3752   15.6964 H       1  UNL1        0.0000
     51 H           4.1781    7.2073   15.1799 H       1  UNL1        0.0000
     52 H           4.3505    8.9187   14.7508 H       1  UNL1        0.0000
     53 C           4.5977    9.7781   17.2440 C.3     1  UNL1        0.0000
     54 H           4.9776   10.5078   16.5193 H       1  UNL1        0.0000
     55 H           5.1338    9.9016   18.1776 H       1  UNL1        0.0000
     56 H           3.5383    9.9982   17.4209 H       1  UNL1        0.0000
@<TRIPOS>BOND
     1    52    49    1
     2    23    22    1
     3    25    22    1
     4    51    49    1
     5    24    22    1
     6    22    21    1
     7    46    45    1
     8    49    50    1
     9    49     2    1
    10    29    26    1
    11    48    45    1
    12    13    11    1
    13    45    47    1
    14    45     1    1
    15    27    26    1
    16    54    53    1
    17     2    53    1
    18     2     1    1
    19    26    21    1
    20    26    28    1
    21    21    14    1
    22    21    19    1
    23    10     9    1
    24    40    39    1
    25     4     3    1
    26    53    56    1
    27    53    55    1
    28    11     9    1
    29    11    14    1
    30    11    12    1
    31     9     8    1
    32     1     3    1
    33     1    41    1
    34    15    14    1
    35    14    16    1
    36     8     6    1
    37     8    19    1
    38     6     7    1
    39     6     5    1
    40     3     5    1
    41    19    20    1
    42    19    16    1
    43    39    30   ar
    44    39    37   ar
    45     5    30    1
    46    38    37    1
    47    42    41    1
    48    30    31   ar
    49    37    35   ar
    50    16    17    1
    51    16    18    1
    52    41    43    1
    53    41    44    1
    54    35    36    1
    55    35    33   ar
    56    31    32    1
    57    31    33   ar
    58    33    34    1
