@<TRIPOS>MOLECULE
1,2,11,12,13
 25 25 0 0 0
SMALL
GASTEIGER

@<TRIPOS>ATOM
      1 C           9.0272    6.8595    8.8377 C.3     1  UNL1        0.0052
      2 C           7.6990    8.6928    8.3431 C.2     1  UNL1       -0.0658
      3 C           9.5637    5.4588    8.7464 C.3     1  UNL1       -0.0545
      4 H          10.0833    5.3296    7.7928 H       1  UNL1        0.0239
      5 H           8.7676    4.7184    8.7951 H       1  UNL1        0.0239
      6 H          10.2750    5.2507    9.5455 H       1  UNL1        0.0239
      7 C           6.5906    6.3896    8.0094 C.3     1  UNL1       -0.0430
      8 H           6.6035    6.3857    6.9158 H       1  UNL1        0.0275
      9 H           5.6091    6.7387    8.3270 H       1  UNL1        0.0275
     10 H           6.7189    5.3631    8.3460 H       1  UNL1        0.0275
     11 C           9.8583    8.0222    8.8420 C.3     1  UNL1       -0.0053
     12 C           7.6932    7.2821    8.5017 C.2     1  UNL1       -0.0658
     13 C           9.0427    9.1608    8.5633 C.3     1  UNL1        0.0052
     14 C          11.3584    8.0127    8.8568 C.3     1  UNL1       -0.0574
     15 H          11.7283    7.9111    7.8327 H       1  UNL1        0.0236
     16 H          11.7429    7.1800    9.4423 H       1  UNL1        0.0236
     17 H          11.7563    8.9369    9.2724 H       1  UNL1        0.0236
     18 C           6.5974    9.5022    7.7251 C.3     1  UNL1       -0.0430
     19 H           6.7481    9.5533    6.6434 H       1  UNL1        0.0275
     20 H           6.5836   10.5188    8.1121 H       1  UNL1        0.0275
     21 H           5.6224    9.0531    7.9079 H       1  UNL1        0.0275
     22 C           9.5604   10.5184    8.1861 C.3     1  UNL1       -0.0545
     23 H           9.8504   10.5172    7.1319 H       1  UNL1        0.0239
     24 H          10.4340   10.7865    8.7785 H       1  UNL1        0.0239
     25 H           8.8031   11.2855    8.3287 H       1  UNL1        0.0239
@<TRIPOS>BOND
     1    19    18    1
     2     8     7    1
     3    23    22    1
     4    18    21    1
     5    18    20    1
     6    18     2    1
     7     4     3    1
     8    15    14    1
     9     7     9    1
    10     7    10    1
    11     7    12    1
    12    22    25    1
    13    22    13    1
    14    22    24    1
    15     2    12    2
    16     2    13    1
    17    12     1    1
    18    13    11    1
    19     3     5    1
    20     3     1    1
    21     3     6    1
    22     1    11    1
    23    11    14    1
    24    14    17    1
    25    14    16    1
