@<TRIPOS>MOLECULE
1,2,3,4,5
 25 25 0 0 0
SMALL
GASTEIGER

@<TRIPOS>ATOM
      1 C          11.3551    6.4408   14.2369 C.2     1  UNL1       -0.0584
      2 C          11.6227    5.1650   14.8203 C.3     1  UNL1        0.0231
      3 C          12.5656    4.4856   13.9740 C.2     1  UNL1       -0.0584
      4 C          12.8548    5.3348   12.8554 C.2     1  UNL1       -0.0477
      5 C          12.1328    6.5534   13.0298 C.2     1  UNL1       -0.0477
      6 C          10.2333    7.3641   14.5877 C.3     1  UNL1       -0.0424
      7 H          10.4971    8.4082   14.4271 H       1  UNL1        0.0275
      8 H           9.9052    7.2348   15.6160 H       1  UNL1        0.0275
      9 H           9.3864    7.1373   13.9367 H       1  UNL1        0.0275
     10 C          10.9387    4.5323   15.9824 C.3     1  UNL1       -0.0510
     11 H          10.3262    5.2462   16.5258 H       1  UNL1        0.0242
     12 H          11.6714    4.1051   16.6666 H       1  UNL1        0.0242
     13 H          10.2983    3.7225   15.6303 H       1  UNL1        0.0242
     14 C          12.9419    3.0459   14.0977 C.3     1  UNL1       -0.0424
     15 H          13.0706    2.7598   15.1405 H       1  UNL1        0.0275
     16 H          13.8615    2.8222   13.5592 H       1  UNL1        0.0275
     17 H          12.1445    2.4300   13.6776 H       1  UNL1        0.0275
     18 C          13.5768    4.8874   11.6265 C.3     1  UNL1       -0.0395
     19 H          13.8706    5.7207   10.9946 H       1  UNL1        0.0278
     20 H          12.9093    4.2421   11.0519 H       1  UNL1        0.0278
     21 H          14.4661    4.3077   11.8697 H       1  UNL1        0.0278
     22 C          11.9190    7.6145   11.9968 C.3     1  UNL1       -0.0395
     23 H          11.8997    8.6112   12.4340 H       1  UNL1        0.0278
     24 H          10.9518    7.4458   11.5197 H       1  UNL1        0.0278
     25 H          12.6819    7.5879   11.2234 H       1  UNL1        0.0278
@<TRIPOS>BOND
     1    19    18    1
     2    20    18    1
     3    25    22    1
     4    24    22    1
     5    18    21    1
     6    18     4    1
     7    22    23    1
     8    22     5    1
     9     4     5    1
    10     4     3    2
    11     5     1    2
    12    16    14    1
    13    17    14    1
    14     9     6    1
    15     3    14    1
    16     3     2    1
    17    14    15    1
    18     1     6    1
    19     1     2    1
    20     7     6    1
    21     6     8    1
    22     2    10    1
    23    13    10    1
    24    10    11    1
    25    10    12    1
