@<TRIPOS>MOLECULE
1,2,3,4,5
 25 25 0 0 0
SMALL
GASTEIGER

@<TRIPOS>ATOM
      1 C           7.6275   -2.3715    9.5412 C.2     1  UNL1       -0.0584
      2 C           9.0272   -2.0664    9.4529 C.2     1  UNL1       -0.0477
      3 C           9.5731   -2.1368   10.7768 C.2     1  UNL1       -0.0477
      4 C           8.5097   -2.4737   11.6817 C.2     1  UNL1       -0.0584
      5 C           7.3153   -2.6393   10.9163 C.3     1  UNL1        0.0231
      6 C           6.7317   -2.6254    8.3738 C.3     1  UNL1       -0.0424
      7 H           6.9386   -1.9316    7.5603 H       1  UNL1        0.0275
      8 H           5.6804   -2.5412    8.6452 H       1  UNL1        0.0275
      9 H           6.9056   -3.6371    8.0021 H       1  UNL1        0.0275
     10 C           9.7691   -1.9020    8.1719 C.3     1  UNL1       -0.0395
     11 H          10.7891   -1.5665    8.3379 H       1  UNL1        0.0278
     12 H           9.2640   -1.1775    7.5335 H       1  UNL1        0.0278
     13 H           9.7976   -2.8547    7.6413 H       1  UNL1        0.0278
     14 C          11.0206   -2.1996   11.1410 C.3     1  UNL1       -0.0395
     15 H          11.6522   -1.7499   10.3794 H       1  UNL1        0.0278
     16 H          11.3047   -3.2500   11.2326 H       1  UNL1        0.0278
     17 H          11.2226   -1.7230   12.0990 H       1  UNL1        0.0278
     18 C           8.7200   -2.8986   13.1005 C.3     1  UNL1       -0.0424
     19 H           7.7822   -2.9776   13.6435 H       1  UNL1        0.0275
     20 H           9.3789   -2.2172   13.6357 H       1  UNL1        0.0275
     21 H           9.1930   -3.8823   13.1031 H       1  UNL1        0.0275
     22 C           6.0365   -3.2510   11.3871 C.3     1  UNL1       -0.0510
     23 H           5.8936   -3.1338   12.4579 H       1  UNL1        0.0242
     24 H           6.0649   -4.3190   11.1621 H       1  UNL1        0.0242
     25 H           5.1736   -2.8291   10.8745 H       1  UNL1        0.0242
@<TRIPOS>BOND
     1    12    10    1
     2     7     6    1
     3    13    10    1
     4     9     6    1
     5    10    11    1
     6    10     2    1
     7     6     8    1
     8     6     1    1
     9     2     1    2
    10     2     3    1
    11     1     5    1
    12    15    14    1
    13     3    14    1
    14     3     4    2
    15    25    22    1
    16     5    22    1
    17     5     4    1
    18    14    16    1
    19    14    17    1
    20    24    22    1
    21    22    23    1
    22     4    18    1
    23    18    21    1
    24    18    20    1
    25    18    19    1
