@<TRIPOS>MOLECULE
1,3,5,7,9
 10 10 0 0 0
SMALL
GASTEIGER

@<TRIPOS>ATOM
      1 C          16.0935   -0.1251    5.7630 C.2     1  UNL1       -0.0763
      2 H          15.1496    0.3599    5.9787 H       1  UNL1        0.0578
      3 C          16.4871   -0.6752    4.5121 C.3     1  UNL1        0.0054
      4 H          15.8796   -0.7167    3.6173 H       1  UNL1        0.0394
      5 C          17.6841   -1.4120    4.7263 C.2     1  UNL1       -0.0763
      6 H          18.1658   -2.0484    3.9935 H       1  UNL1        0.0578
      7 C          18.0458   -1.2963    6.0834 C.2     1  UNL1       -0.0654
      8 H          18.8073   -1.8745    6.5878 H       1  UNL1        0.0615
      9 C          17.0599   -0.4968    6.7248 C.2     1  UNL1       -0.0654
     10 H          16.9719   -0.3373    7.7929 H       1  UNL1        0.0615
@<TRIPOS>BOND
     1     4     3    1
     2     6     5    1
     3     3     5    1
     4     3     1    1
     5     5     7    2
     6     1     2    1
     7     1     9    2
     8     7     8    1
     9     7     9    1
    10     9    10    1
