@<TRIPOS>MOLECULE
1,3,5,7,9
 10 10 0 0 0
SMALL
GASTEIGER

@<TRIPOS>ATOM
      1 C           9.4831   11.4681   14.2454 C.2     1  UNL1       -0.0763
      2 H          10.1308   11.9250   14.9782 H       1  UNL1        0.0578
      3 C           9.9042   10.8616   13.0371 C.2     1  UNL1       -0.0654
      4 H          10.9287   10.7497   12.7167 H       1  UNL1        0.0615
      5 C           8.7506   10.5098   12.3015 C.2     1  UNL1       -0.0654
      6 H           8.7251   10.1384   11.2841 H       1  UNL1        0.0615
      7 C           7.5980   10.9404   13.0511 C.2     1  UNL1       -0.0763
      8 H           6.5814   10.9486   12.6794 H       1  UNL1        0.0578
      9 C           8.0647   11.5477   14.2366 C.3     1  UNL1        0.0054
     10 H           7.4637   12.0613   14.9711 H       1  UNL1        0.0394
@<TRIPOS>BOND
     1     6     5    1
     2     5     3    1
     3     5     7    2
     4     8     7    1
     5     4     3    1
     6     3     1    2
     7     7     9    1
     8     9     1    1
     9     9    10    1
    10     1     2    1
