@<TRIPOS>MOLECULE
1,2,3,4,5
 16 16 0 0 0
SMALL
GASTEIGER

@<TRIPOS>ATOM
      1 C           1.8954    3.6457    9.8459 C.2     1  UNL1       -0.0647
      2 C           2.3045    4.9271   10.2849 C.2     1  UNL1       -0.0595
      3 C           1.9196    5.0863   11.6364 C.2     1  UNL1       -0.0538
      4 C           1.2623    3.9032   12.0265 C.2     1  UNL1       -0.0731
      5 C           1.2700    3.0043   10.9413 C.3     1  UNL1        0.0087
      6 C           1.9260    3.1766    8.4232 C.3     1  UNL1       -0.0429
      7 C           2.0065    6.3554   12.4343 C.3     1  UNL1       -0.0400
      8 H           2.6785    5.7092    9.6380 H       1  UNL1        0.0620
      9 H           0.7327    3.7628   12.9591 H       1  UNL1        0.0581
     10 H           0.7511    2.0551   10.8988 H       1  UNL1        0.0397
     11 H           2.8228    3.5419    7.9226 H       1  UNL1        0.0275
     12 H           1.0529    3.5606    7.8882 H       1  UNL1        0.0275
     13 H           1.9137    2.0896    8.3676 H       1  UNL1        0.0275
     14 H           1.4180    6.2709   13.3476 H       1  UNL1        0.0277
     15 H           1.6108    7.1901   11.8527 H       1  UNL1        0.0277
     16 H           3.0349    6.5997   12.7066 H       1  UNL1        0.0277
@<TRIPOS>BOND
     1    12     6    1
     2    11     6    1
     3    13     6    1
     4     6     1    1
     5     8     2    1
     6     1     2    2
     7     1     5    1
     8     2     3    1
     9    10     5    1
    10     5     4    1
    11     3     4    2
    12     3     7    1
    13    15     7    1
    14     4     9    1
    15     7    16    1
    16     7    14    1
