@<TRIPOS>MOLECULE
1,2,3,4,5
 25 25 0 0 0
SMALL
GASTEIGER

@<TRIPOS>ATOM
      1 C          15.8532    3.4255    0.3015 C.3     1  UNL1        0.0231
      2 C          14.6455    4.0337   -0.1440 C.2     1  UNL1       -0.0584
      3 C          14.0684    3.1938   -1.1223 C.2     1  UNL1       -0.0477
      4 C          14.9174    2.0627   -1.2962 C.2     1  UNL1       -0.0477
      5 C          16.0262    2.2184   -0.4252 C.2     1  UNL1       -0.0584
      6 C          16.8831    4.1146    1.1309 C.3     1  UNL1       -0.0510
      7 C          14.2292    5.4206    0.2188 C.3     1  UNL1       -0.0424
      8 C          12.9225    3.5501   -2.0135 C.3     1  UNL1       -0.0395
      9 C          14.7777    1.0681   -2.3982 C.3     1  UNL1       -0.0395
     10 C          17.2547    1.3770   -0.3713 C.3     1  UNL1       -0.0424
     11 H          17.5860    3.4051    1.5573 H       1  UNL1        0.0242
     12 H          17.5519    1.1990    0.6594 H       1  UNL1        0.0275
     13 H          14.9849    1.5448   -3.3590 H       1  UNL1        0.0278
     14 H          13.2421    4.3088   -2.7316 H       1  UNL1        0.0278
     15 H          13.2703    5.6724   -0.2230 H       1  UNL1        0.0275
     16 H          17.4479    4.8166    0.5125 H       1  UNL1        0.0242
     17 H          16.4145    4.6771    1.9334 H       1  UNL1        0.0242
     18 H          14.1632    5.5345    1.2992 H       1  UNL1        0.0275
     19 H          14.9703    6.1337   -0.1476 H       1  UNL1        0.0275
     20 H          12.5830    2.6819   -2.5700 H       1  UNL1        0.0278
     21 H          12.0789    3.9540   -1.4565 H       1  UNL1        0.0278
     22 H          15.4750    0.2472   -2.2671 H       1  UNL1        0.0278
     23 H          13.7710    0.6582   -2.4293 H       1  UNL1        0.0278
     24 H          17.0953    0.4137   -0.8436 H       1  UNL1        0.0275
     25 H          18.0754    1.8833   -0.8834 H       1  UNL1        0.0275
@<TRIPOS>BOND
     1    13     9    1
     2    14     8    1
     3    20     8    1
     4    23     9    1
     5     9    22    1
     6     9     4    1
     7     8    21    1
     8     8     3    1
     9     4     3    1
    10     4     5    2
    11     3     2    2
    12    25    10    1
    13    24    10    1
    14     5    10    1
    15     5     1    1
    16    10    12    1
    17    15     7    1
    18    19     7    1
    19     2     7    1
    20     2     1    1
    21     7    18    1
    22     1     6    1
    23    16     6    1
    24     6    11    1
    25     6    17    1
