@<TRIPOS>MOLECULE
1,2,3,4,5
 25 25 0 0 0
SMALL
GASTEIGER

@<TRIPOS>ATOM
      1 C           8.8766    1.2890    0.2692 C.2     1  UNL1       -0.0658
      2 C           9.8211    1.3347    1.3335 C.3     1  UNL1        0.0052
      3 C          11.0478    1.8352    0.8034 C.3     1  UNL1       -0.0053
      4 C          10.8682    2.0591   -0.5880 C.3     1  UNL1        0.0052
      5 C           9.5138    1.7748   -0.9032 C.2     1  UNL1       -0.0658
      6 C           7.5700    0.5553    0.3174 C.3     1  UNL1       -0.0430
      7 C           9.6763    0.5943    2.6307 C.3     1  UNL1       -0.0545
      8 C          12.3418    1.8334    1.5650 C.3     1  UNL1       -0.0574
      9 C          11.9554    2.1336   -1.6208 C.3     1  UNL1       -0.0545
     10 C           8.9155    1.7300   -2.2784 C.3     1  UNL1       -0.0430
     11 H           7.7614   -0.5192    0.2459 H       1  UNL1        0.0275
     12 H           7.0443    0.7440    1.2529 H       1  UNL1        0.0275
     13 H           6.9230    0.8454   -0.5077 H       1  UNL1        0.0275
     14 H           9.9258   -0.4588    2.4686 H       1  UNL1        0.0239
     15 H           8.6556    0.6475    3.0043 H       1  UNL1        0.0239
     16 H          10.3452    0.9867    3.3930 H       1  UNL1        0.0239
     17 H          12.6986    0.8073    1.6898 H       1  UNL1        0.0236
     18 H          12.2086    2.2636    2.5589 H       1  UNL1        0.0236
     19 H          13.1181    2.3927    1.0456 H       1  UNL1        0.0236
     20 H          12.0549    1.1471   -2.0831 H       1  UNL1        0.0239
     21 H          12.9170    2.3878   -1.1842 H       1  UNL1        0.0239
     22 H          11.7325    2.8412   -2.4171 H       1  UNL1        0.0239
     23 H           8.7973    0.6908   -2.5957 H       1  UNL1        0.0275
     24 H           7.9299    2.1984   -2.2926 H       1  UNL1        0.0275
     25 H           9.5540    2.2313   -3.0025 H       1  UNL1        0.0275
@<TRIPOS>BOND
     1    25    10    1
     2    23    10    1
     3    22     9    1
     4    24    10    1
     5    10     5    1
     6    20     9    1
     7     9    21    1
     8     9     4    1
     9     5     4    1
    10     5     1    2
    11     4     3    1
    12    13     6    1
    13    11     6    1
    14     1     6    1
    15     1     2    1
    16     6    12    1
    17     3     2    1
    18     3     8    1
    19    19     8    1
    20     2     7    1
    21     8    17    1
    22     8    18    1
    23    14     7    1
    24     7    15    1
    25     7    16    1
