@<TRIPOS>MOLECULE
1,2,3,4,5
 25 25 0 0 0
SMALL
GASTEIGER

@<TRIPOS>ATOM
      1 C          11.0995    5.0723   -0.0411 C.2     1  UNL1       -0.0584
      2 C          10.8007    5.3171    1.3260 C.3     1  UNL1        0.0231
      3 C           9.4414    5.7229    1.4173 C.2     1  UNL1       -0.0584
      4 C           8.8824    5.6711    0.1097 C.2     1  UNL1       -0.0477
      5 C           9.9023    5.2442   -0.7865 C.2     1  UNL1       -0.0477
      6 C          12.4991    5.0862   -0.5837 C.3     1  UNL1       -0.0424
      7 C          11.8118    5.4196    2.4293 C.3     1  UNL1       -0.0510
      8 C           8.7838    6.3952    2.5842 C.3     1  UNL1       -0.0424
      9 C           7.5936    6.3273   -0.2910 C.3     1  UNL1       -0.0395
     10 C           9.7458    5.2539   -2.2791 C.3     1  UNL1       -0.0395
     11 H          12.9098    6.0906   -0.4444 H       1  UNL1        0.0275
     12 H          13.1590    4.3948   -0.0623 H       1  UNL1        0.0275
     13 H          12.5266    4.8664   -1.6470 H       1  UNL1        0.0275
     14 H          12.1565    6.4534    2.5214 H       1  UNL1        0.0242
     15 H          12.6805    4.7942    2.2317 H       1  UNL1        0.0242
     16 H          11.3790    5.1264    3.3847 H       1  UNL1        0.0242
     17 H           8.7896    7.4770    2.4240 H       1  UNL1        0.0275
     18 H           9.3082    6.1826    3.5126 H       1  UNL1        0.0275
     19 H           7.7481    6.0741    2.6911 H       1  UNL1        0.0275
     20 H           7.2158    5.9292   -1.2301 H       1  UNL1        0.0278
     21 H           7.7666    7.4004   -0.4170 H       1  UNL1        0.0278
     22 H           6.8267    6.1970    0.4714 H       1  UNL1        0.0278
     23 H           9.7219    6.2849   -2.6425 H       1  UNL1        0.0278
     24 H          10.5706    4.7467   -2.7763 H       1  UNL1        0.0278
     25 H           8.8109    4.7740   -2.5730 H       1  UNL1        0.0278
@<TRIPOS>BOND
     1    24    10    1
     2    23    10    1
     3    25    10    1
     4    10     5    1
     5    13     6    1
     6    20     9    1
     7     5     1    2
     8     5     4    1
     9     6    11    1
    10     6    12    1
    11     6     1    1
    12    21     9    1
    13     9     4    1
    14     9    22    1
    15     1     2    1
    16     4     3    2
    17     2     3    1
    18     2     7    1
    19     3     8    1
    20    15     7    1
    21    17     8    1
    22     7    14    1
    23     7    16    1
    24     8    19    1
    25     8    18    1
