@<TRIPOS>MOLECULE
1,3,5,7,9
 10 10 0 0 0
SMALL
GASTEIGER

@<TRIPOS>ATOM
      1 C           5.3055    4.8622   13.1191 C.2     1  UNL1       -0.0837
      2 H           4.9631    5.0978   14.1121 H       1  UNL1        0.0572
      3 C           4.4981    4.6885   11.9906 C.2     1  UNL1       -0.0837
      4 H           3.4216    4.7251   11.9707 H       1  UNL1        0.0572
      5 C           5.3469    4.4712   10.8743 C.3     1  UNL1       -0.0127
      6 H           5.0254    4.4444    9.8455 H       1  UNL1        0.0352
      7 C           6.6907    4.6396   11.3063 C.3     1  UNL1       -0.0235
      8 H           7.5575    4.6843   10.6680 H       1  UNL1        0.0315
      9 C           6.6702    4.8354   12.6972 C.3     1  UNL1       -0.0127
     10 H           7.5171    5.0856   13.3154 H       1  UNL1        0.0352
@<TRIPOS>BOND
     1     6     5    1
     2     8     7    1
     3     5     7    1
     4     5     3    1
     5     7     9    1
     6     4     3    1
     7     3     1    2
     8     9     1    1
     9     9    10    1
    10     1     2    1
