@<TRIPOS>MOLECULE
1,3,5,7,9
 10 10 0 0 0
SMALL
GASTEIGER

@<TRIPOS>ATOM
      1 C           1.7140   12.5134   18.5560 C.3     1  UNL1        0.0054
      2 H           2.7893   12.5838   18.6651 H       1  UNL1        0.0394
      3 C           0.7550   13.0181   19.4618 C.2     1  UNL1       -0.0763
      4 H           0.9699   13.5805   20.3616 H       1  UNL1        0.0578
      5 C          -0.5107   12.5397   19.0634 C.2     1  UNL1       -0.0654
      6 H          -1.4337   12.6447   19.6208 H       1  UNL1        0.0615
      7 C          -0.3413   11.7628   17.9009 C.2     1  UNL1       -0.0654
      8 H          -1.1104   11.1635   17.4288 H       1  UNL1        0.0615
      9 C           1.0325   11.7424   17.5828 C.2     1  UNL1       -0.0763
     10 H           1.5079   11.1321   16.8237 H       1  UNL1        0.0578
@<TRIPOS>BOND
     1    10     9    1
     2     8     7    1
     3     9     7    2
     4     9     1    1
     5     7     5    1
     6     1     2    1
     7     1     3    1
     8     5     3    2
     9     5     6    1
    10     3     4    1
