@<TRIPOS>MOLECULE
1,3,5,7,9
 10 10 0 0 0
SMALL
GASTEIGER

@<TRIPOS>ATOM
      1 C           0.3215   14.1663   14.6587 C.2     1  UNL1       -0.0763
      2 H           1.1760   13.9932   14.0177 H       1  UNL1        0.0578
      3 C          -0.1719   15.4310   15.0490 C.2     1  UNL1       -0.0654
      4 H           0.2534   16.3910   14.7819 H       1  UNL1        0.0615
      5 C          -1.3987   15.2332   15.7084 C.2     1  UNL1       -0.0654
      6 H          -2.0788   16.0162   16.0232 H       1  UNL1        0.0615
      7 C          -1.6556   13.8457   15.7546 C.2     1  UNL1       -0.0763
      8 H          -2.5736   13.3859   16.1040 H       1  UNL1        0.0578
      9 C          -0.5904   13.1859   15.1014 C.3     1  UNL1        0.0054
     10 H          -0.5601   12.1341   14.8422 H       1  UNL1        0.0394
@<TRIPOS>BOND
     1     2     1    1
     2     1     3    2
     3     1     9    1
     4     4     3    1
     5    10     9    1
     6     3     5    1
     7     9     7    1
     8     5     7    2
     9     5     6    1
    10     7     8    1
