@<TRIPOS>MOLECULE
2,3,5,7,9
 32 33 0 0 0
SMALL
GASTEIGER

@<TRIPOS>ATOM
      1 SI          3.9021    3.0657    7.1531 Si      1  UNL1        0.0000
      2 C           3.7484    3.1183    5.2874 C.3     1  UNL1        0.0000
      3 C           4.0864    2.0457    4.4196 C.2     1  UNL1        0.0000
      4 H           4.5040    1.0983    4.7411 H       1  UNL1        0.0000
      5 C           3.6256    2.3443    3.1277 C.2     1  UNL1        0.0000
      6 H           3.6325    1.6706    2.2792 H       1  UNL1        0.0000
      7 C           2.9737    3.5970    3.1784 C.2     1  UNL1        0.0000
      8 H           2.4132    4.0519    2.3706 H       1  UNL1        0.0000
      9 C           3.0449    4.0707    4.4987 C.2     1  UNL1        0.0000
     10 H           2.5576    4.9603    4.8787 H       1  UNL1        0.0000
     11 C           5.6977    2.5899    7.6403 C.3     1  UNL1        0.0000
     12 H           5.8637    1.5234    7.5144 H       1  UNL1        0.0000
     13 H           5.8959    2.8230    8.6819 H       1  UNL1        0.0000
     14 H           6.4338    3.1187    7.0359 H       1  UNL1        0.0000
     15 C           3.3997    4.7255    7.9582 C.3     1  UNL1        0.0000
     16 H           3.4819    4.6638    9.0387 H       1  UNL1        0.0000
     17 H           2.3684    4.9718    7.7259 H       1  UNL1        0.0000
     18 H           4.0226    5.5482    7.6239 H       1  UNL1        0.0000
     19 C           2.7400    1.7222    7.8343 C.ar    1  UNL1        0.0000
     20 C           2.8106    1.3311    9.1684 C.ar    1  UNL1        0.0000
     21 H           3.5472    1.7872    9.8142 H       1  UNL1        0.0000
     22 C           1.9590    0.3740    9.6839 C.ar    1  UNL1        0.0000
     23 H           2.0340    0.0893   10.7247 H       1  UNL1        0.0000
     24 C           0.9995   -0.2298    8.8794 C.ar    1  UNL1        0.0000
     25 C           0.9232    0.1530    7.5470 C.ar    1  UNL1        0.0000
     26 H           0.1835   -0.3041    6.9039 H       1  UNL1        0.0000
     27 C           1.7782    1.1119    7.0359 C.ar    1  UNL1        0.0000
     28 H           1.6993    1.3953    5.9962 H       1  UNL1        0.0000
     29 C           0.0884   -1.2808    9.4376 C.3     1  UNL1        0.0000
     30 H           0.6026   -2.2422    9.4697 H       1  UNL1        0.0000
     31 H          -0.8006   -1.3925    8.8214 H       1  UNL1        0.0000
     32 H          -0.2141   -1.0306   10.4526 H       1  UNL1        0.0000
@<TRIPOS>BOND
     1     6     5    1
     2     8     7    1
     3     5     7    1
     4     5     3    2
     5     7     9    2
     6     3     4    1
     7     3     2    1
     8     9    10    1
     9     9     2    1
    10     2     1    1
    11    28    27    1
    12    26    25    1
    13    27    25   ar
    14    27    19   ar
    15    14    11    1
    16     1    11    1
    17     1    19    1
    18     1    15    1
    19    12    11    1
    20    25    24   ar
    21    18    15    1
    22    11    13    1
    23    17    15    1
    24    19    20   ar
    25    15    16    1
    26    31    29    1
    27    24    29    1
    28    24    22   ar
    29    20    22   ar
    30    20    21    1
    31    29    30    1
    32    29    32    1
    33    22    23    1
