@<TRIPOS>MOLECULE
2,4,6,8,10
 29 30 0 0 0
SMALL
GASTEIGER

@<TRIPOS>ATOM
      1 SI          2.7948    1.5270    8.3408 Si      1  UNL1        0.0000
      2 C           2.1808    3.5169   10.4168 C.2     1  UNL1        0.0000
      3 H           3.1997    3.8843   10.4678 H       1  UNL1        0.0000
      4 C           1.1421    3.8505   11.3001 C.2     1  UNL1        0.0000
      5 H           1.2083    4.5365   12.1372 H       1  UNL1        0.0000
      6 C           0.0469    3.0030   11.0230 C.2     1  UNL1        0.0000
      7 H          -0.8630    2.9388   11.6057 H       1  UNL1        0.0000
      8 C           0.4025    2.1657    9.9550 C.2     1  UNL1        0.0000
      9 H          -0.1887    1.3427    9.5731 H       1  UNL1        0.0000
     10 C           1.7332    2.4787    9.5547 C.3     1  UNL1        0.0000
     11 C           3.5399    2.7257    7.0380 C.3     1  UNL1        0.0000
     12 H           2.8147    3.4800    6.7307 H       1  UNL1        0.0000
     13 H           3.8580    2.1905    6.1487 H       1  UNL1        0.0000
     14 H           4.4139    3.2382    7.4309 H       1  UNL1        0.0000
     15 C           1.7648    0.1701    7.4729 C.3     1  UNL1        0.0000
     16 H           1.3980   -0.5573    8.1900 H       1  UNL1        0.0000
     17 H           2.3672   -0.3660    6.7466 H       1  UNL1        0.0000
     18 H           0.9081    0.5874    6.9530 H       1  UNL1        0.0000
     19 C           4.2361    0.6956    9.2653 C.ar    1  UNL1        0.0000
     20 C           5.3131    0.1609    8.5643 C.ar    1  UNL1        0.0000
     21 H           5.3300    0.2338    7.4863 H       1  UNL1        0.0000
     22 C           6.3607   -0.4586    9.2206 C.ar    1  UNL1        0.0000
     23 H           7.1880   -0.8661    8.6565 H       1  UNL1        0.0000
     24 C           6.3506   -0.5559   10.6020 C.ar    1  UNL1        0.0000
     25 H           7.1681   -1.0385   11.1181 H       1  UNL1        0.0000
     26 C           5.2874   -0.0316   11.3171 C.ar    1  UNL1        0.0000
     27 H           5.2738   -0.1049   12.3953 H       1  UNL1        0.0000
     28 C           4.2430    0.5862   10.6527 C.ar    1  UNL1        0.0000
     29 H           3.4167    0.9940   11.2169 H       1  UNL1        0.0000
@<TRIPOS>BOND
     1    13    11    1
     2    12    11    1
     3    17    15    1
     4    18    15    1
     5    11    14    1
     6    11     1    1
     7    15    16    1
     8    15     1    1
     9    21    20    1
    10     1    19    1
    11     1    10    1
    12    20    22   ar
    13    20    19   ar
    14    23    22    1
    15    22    24   ar
    16    19    28   ar
    17    10     8    1
    18    10     2    1
    19     9     8    1
    20     8     6    2
    21     2     3    1
    22     2     4    2
    23    24    25    1
    24    24    26   ar
    25    28    29    1
    26    28    26   ar
    27     6     4    1
    28     6     7    1
    29     4     5    1
    30    26    27    1
