@<TRIPOS>MOLECULE
2,4,5,7,9
 32 33 0 0 0
SMALL
GASTEIGER

@<TRIPOS>ATOM
      1 SI          7.0166    3.2102    0.3259 Si      1  UNL1        0.0000
      2 C           6.8303    2.0762    3.0143 C.2     1  UNL1        0.0000
      3 H           6.4141    1.1425    2.6534 H       1  UNL1        0.0000
      4 C           7.1673    3.1846    2.1924 C.3     1  UNL1        0.0000
      5 C           7.8689    4.1042    3.0207 C.2     1  UNL1        0.0000
      6 H           8.3552    5.0095    2.6786 H       1  UNL1        0.0000
      7 C           7.9400    3.5757    4.3202 C.2     1  UNL1        0.0000
      8 H           8.4996    3.9971    5.1466 H       1  UNL1        0.0000
      9 C           7.2899    2.3210    4.3179 C.2     1  UNL1        0.0000
     10 H           7.2833    1.6124    5.1374 H       1  UNL1        0.0000
     11 C           5.2248    2.7427   -0.1824 C.3     1  UNL1        0.0000
     12 H           4.4850    3.2469    0.4382 H       1  UNL1        0.0000
     13 H           5.0635    1.6717   -0.0939 H       1  UNL1        0.0000
     14 H           5.0279    3.0109   -1.2157 H       1  UNL1        0.0000
     15 C           7.5073    4.9064   -0.4073 C.3     1  UNL1        0.0000
     16 H           6.8755    5.7090   -0.0423 H       1  UNL1        0.0000
     17 H           7.4307    4.8888   -1.4898 H       1  UNL1        0.0000
     18 H           8.5352    5.1520   -0.1598 H       1  UNL1        0.0000
     19 C           8.1929    1.9090   -0.4111 C.ar    1  UNL1        0.0000
     20 C           9.1641    1.2790    0.3611 C.ar    1  UNL1        0.0000
     21 H           9.2395    1.5197    1.4117 H       1  UNL1        0.0000
     22 C          10.0292    0.3521   -0.1893 C.ar    1  UNL1        0.0000
     23 H          10.7745   -0.1234    0.4337 H       1  UNL1        0.0000
     24 C           9.9543    0.0211   -1.5362 C.ar    1  UNL1        0.0000
     25 C           8.9868    0.6448   -2.3142 C.ar    1  UNL1        0.0000
     26 H           8.9108    0.4002   -3.3651 H       1  UNL1        0.0000
     27 C           8.1245    1.5706   -1.7592 C.ar    1  UNL1        0.0000
     28 H           7.3796    2.0411   -2.3849 H       1  UNL1        0.0000
     29 C          10.9083   -0.9646   -2.1400 C.3     1  UNL1        0.0000
     30 H          11.8063   -0.4498   -2.4843 H       1  UNL1        0.0000
     31 H          10.4602   -1.4664   -2.9948 H       1  UNL1        0.0000
     32 H          11.2097   -1.7114   -1.4088 H       1  UNL1        0.0000
@<TRIPOS>BOND
     1    26    25    1
     2    31    29    1
     3    30    29    1
     4    28    27    1
     5    25    27   ar
     6    25    24   ar
     7    29    24    1
     8    29    32    1
     9    27    19   ar
    10    24    22   ar
    11    17    15    1
    12    14    11    1
    13    19     1    1
    14    19    20   ar
    15    15    18    1
    16    15    16    1
    17    15     1    1
    18    22    20   ar
    19    22    23    1
    20    11    13    1
    21    11     1    1
    22    11    12    1
    23     1     4    1
    24    20    21    1
    25     4     2    1
    26     4     5    1
    27     3     2    1
    28     6     5    1
    29     2     9    2
    30     5     7    2
    31     9     7    1
    32     9    10    1
    33     7     8    1
