@<TRIPOS>MOLECULE
1,3,5,7,9
 10 10 0 0 0
SMALL
GASTEIGER

@<TRIPOS>ATOM
      1 C           0.4135    6.7193    7.7071 C.2     1  UNL1       -0.0763
      2 H          -0.3969    7.0671    7.0788 H       1  UNL1        0.0578
      3 C           0.5652    6.9857    9.0840 C.3     1  UNL1        0.0054
      4 H          -0.1017    7.5885    9.6887 H       1  UNL1        0.0394
      5 C           1.8164    6.4823    9.4892 C.2     1  UNL1       -0.0763
      6 H           2.2791    6.6465   10.4556 H       1  UNL1        0.0578
      7 C           2.4363    5.8938    8.3670 C.2     1  UNL1       -0.0654
      8 H           3.4607    5.5438    8.3225 H       1  UNL1        0.0615
      9 C           1.5678    6.0420    7.2633 C.2     1  UNL1       -0.0654
     10 H           1.8053    5.8166    6.2301 H       1  UNL1        0.0615
@<TRIPOS>BOND
     1    10     9    1
     2     2     1    1
     3     9     1    2
     4     9     7    1
     5     1     3    1
     6     8     7    1
     7     7     5    2
     8     3     5    1
     9     3     4    1
    10     5     6    1
