@<TRIPOS>MOLECULE
1,3,4,5,6
 37 37 0 0 0
SMALL
GASTEIGER

@<TRIPOS>ATOM
      1 C           3.5285    4.6965    6.1789 C.2     1  UNL1        0.0000
      2 H           2.7283    5.1807    5.6362 H       1  UNL1        0.0000
      3 C           4.6072    5.4075    6.8373 C.3     1  UNL1        0.0000
      4 C           5.2896    4.4425    7.6225 C.3     1  UNL1        0.0000
      5 C           4.6993    3.1510    7.4226 C.3     1  UNL1        0.0000
      6 C           3.5652    3.3498    6.5668 C.2     1  UNL1        0.0000
      7 H           2.8080    2.6076    6.3631 H       1  UNL1        0.0000
      8 C           6.3597    4.7346    8.6223 C.3     1  UNL1        0.0000
      9 H           5.8989    4.8572    9.6029 H       1  UNL1        0.0000
     10 H           6.8863    5.6548    8.3872 H       1  UNL1        0.0000
     11 H           7.0757    3.9186    8.6932 H       1  UNL1        0.0000
     12 SI          4.5118    7.2882    7.0538 Si      1  UNL1        0.0000
     13 SI          5.0868    1.5479    8.3563 Si      1  UNL1        0.0000
     14 C           6.1745    8.1300    7.4817 C.3     1  UNL1        0.0000
     15 H           7.0232    7.7735    6.9062 H       1  UNL1        0.0000
     16 H           6.4138    8.0090    8.5337 H       1  UNL1        0.0000
     17 H           6.0907    9.1967    7.2987 H       1  UNL1        0.0000
     18 C           3.7951    7.9976    5.4311 C.3     1  UNL1        0.0000
     19 H           4.1296    7.4528    4.5516 H       1  UNL1        0.0000
     20 H           4.0764    9.0371    5.2986 H       1  UNL1        0.0000
     21 H           2.7100    7.9589    5.4415 H       1  UNL1        0.0000
     22 C           3.3032    7.5775    8.4992 C.3     1  UNL1        0.0000
     23 H           3.1354    8.6388    8.6540 H       1  UNL1        0.0000
     24 H           3.6852    7.1683    9.4300 H       1  UNL1        0.0000
     25 H           2.3379    7.1163    8.3117 H       1  UNL1        0.0000
     26 C           3.8205    0.2275    7.8205 C.3     1  UNL1        0.0000
     27 H           3.8698    0.0181    6.7553 H       1  UNL1        0.0000
     28 H           2.8040    0.5264    8.0570 H       1  UNL1        0.0000
     29 H           4.0105   -0.7048    8.3423 H       1  UNL1        0.0000
     30 C           4.9604    1.8652   10.2293 C.3     1  UNL1        0.0000
     31 H           4.0676    2.4284   10.4838 H       1  UNL1        0.0000
     32 H           5.8168    2.4104   10.6124 H       1  UNL1        0.0000
     33 H           4.9129    0.9212   10.7627 H       1  UNL1        0.0000
     34 C           6.8369    0.9289    7.8846 C.3     1  UNL1        0.0000
     35 H           6.8388    0.4377    6.9149 H       1  UNL1        0.0000
     36 H           7.1887    0.2051    8.6126 H       1  UNL1        0.0000
     37 H           7.5704    1.7300    7.8457 H       1  UNL1        0.0000
@<TRIPOS>BOND
     1    19    18    1
     2    20    18    1
     3    18    21    1
     4    18    12    1
     5     2     1    1
     6     1     6    2
     7     1     3    1
     8     7     6    1
     9     6     5    1
    10    27    26    1
    11     3    12    1
    12     3     4    1
    13    15    14    1
    14    35    34    1
    15    12    14    1
    16    12    22    1
    17    17    14    1
    18     5     4    1
    19     5    13    1
    20    14    16    1
    21     4     8    1
    22    26    28    1
    23    26    29    1
    24    26    13    1
    25    37    34    1
    26    34    13    1
    27    34    36    1
    28    25    22    1
    29    13    30    1
    30    10     8    1
    31    22    23    1
    32    22    24    1
    33     8    11    1
    34     8     9    1
    35    30    31    1
    36    30    32    1
    37    30    33    1
