@<TRIPOS>MOLECULE
1,3,5,7,9
 10 10 0 0 0
SMALL
GASTEIGER

@<TRIPOS>ATOM
      1 C           1.7658   10.5049    3.8457 C.2     1  UNL1       -0.0654
      2 H           2.6835   11.0434    4.0180 H       1  UNL1        0.0615
      3 C           1.4579    9.2115    4.3476 C.2     1  UNL1       -0.0654
      4 H           2.1163    8.5921    4.9345 H       1  UNL1        0.0615
      5 C           0.1063    8.9444    4.0610 C.2     1  UNL1       -0.0763
      6 H          -0.4546    8.0840    4.3879 H       1  UNL1        0.0578
      7 C          -0.4246   10.0681    3.3718 C.3     1  UNL1        0.0054
      8 H          -1.4636   10.2166    3.1262 H       1  UNL1        0.0394
      9 C           0.5895   11.0500    3.2866 C.2     1  UNL1       -0.0763
     10 H           0.4711   12.0572    2.9246 H       1  UNL1        0.0578
@<TRIPOS>BOND
     1    10     9    1
     2     8     7    1
     3     9     7    1
     4     9     1    2
     5     7     5    1
     6     1     2    1
     7     1     3    1
     8     5     3    2
     9     5     6    1
    10     3     4    1
