@<TRIPOS>MOLECULE
1,2,3,4,5
 10 10 0 0 0
SMALL
GASTEIGER

@<TRIPOS>ATOM
      1 C           7.1252    2.6227    0.3281 C.2     1  UNL1       -0.0654
      2 C           7.3190    3.5023    1.4101 C.2     1  UNL1       -0.0763
      3 C           6.0420    3.8175    1.9477 C.3     1  UNL1        0.0054
      4 C           5.0759    3.1432    1.1599 C.2     1  UNL1       -0.0763
      5 C           5.7454    2.4143    0.1735 C.2     1  UNL1       -0.0654
      6 H           7.8920    2.2826   -0.3527 H       1  UNL1        0.0615
      7 H           8.2355    4.0304    1.6264 H       1  UNL1        0.0578
      8 H           5.8309    4.6230    2.6395 H       1  UNL1        0.0394
      9 H           4.0065    3.2635    1.2373 H       1  UNL1        0.0578
     10 H           5.2818    1.8540   -0.6224 H       1  UNL1        0.0615
@<TRIPOS>BOND
     1    10     5    1
     2     6     1    1
     3     5     1    1
     4     5     4    2
     5     1     2    2
     6     4     9    1
     7     4     3    1
     8     2     7    1
     9     2     3    1
    10     3     8    1
