@<TRIPOS>MOLECULE
1,2,3,4,5
 25 25 0 0 0
SMALL
GASTEIGER

@<TRIPOS>ATOM
      1 C           8.4283    2.4314    4.1110 C.2     1  UNL1       -0.0584
      2 C           9.0236    1.4895    3.2242 C.2     1  UNL1       -0.0477
      3 C           8.5681    0.1977    3.5958 C.2     1  UNL1       -0.0477
      4 C           7.6813    0.3307    4.6867 C.2     1  UNL1       -0.0584
      5 C           7.5853    1.7116    5.0089 C.3     1  UNL1        0.0231
      6 C           8.8511    3.8586    4.3464 C.3     1  UNL1       -0.0424
      7 C          10.1321    1.7330    2.2342 C.3     1  UNL1       -0.0395
      8 C           9.0590   -1.0999    3.0200 C.3     1  UNL1       -0.0395
      9 C           7.0272   -0.8171    5.4028 C.3     1  UNL1       -0.0424
     10 C           6.9950    2.3089    6.2571 C.3     1  UNL1       -0.0510
     11 H           9.3296    3.9399    5.3244 H       1  UNL1        0.0275
     12 H           9.5727    4.1898    3.6033 H       1  UNL1        0.0275
     13 H           8.0078    4.5515    4.3385 H       1  UNL1        0.0275
     14 H          11.0599    1.2864    2.5974 H       1  UNL1        0.0278
     15 H          10.3138    2.7950    2.0850 H       1  UNL1        0.0278
     16 H           9.9098    1.2848    1.2639 H       1  UNL1        0.0278
     17 H           9.9555   -1.4327    3.5490 H       1  UNL1        0.0278
     18 H           9.3149   -0.9945    1.9668 H       1  UNL1        0.0278
     19 H           8.3053   -1.8795    3.1152 H       1  UNL1        0.0278
     20 H           7.7816   -1.5217    5.7558 H       1  UNL1        0.0275
     21 H           6.3431   -1.3595    4.7440 H       1  UNL1        0.0275
     22 H           6.4636   -0.4680    6.2640 H       1  UNL1        0.0275
     23 H           7.7546    2.3515    7.0420 H       1  UNL1        0.0242
     24 H           6.1610    1.7207    6.6310 H       1  UNL1        0.0242
     25 H           6.6439    3.3240    6.0819 H       1  UNL1        0.0242
@<TRIPOS>BOND
     1    16     7    1
     2    18     8    1
     3    15     7    1
     4     7    14    1
     5     7     2    1
     6     8    19    1
     7     8    17    1
     8     8     3    1
     9     2     3    1
    10     2     1    2
    11     3     4    2
    12    12     6    1
    13     1     6    1
    14     1     5    1
    15    13     6    1
    16     6    11    1
    17     4     5    1
    18     4     9    1
    19    21     9    1
    20     5    10    1
    21     9    20    1
    22     9    22    1
    23    25    10    1
    24    10    24    1
    25    10    23    1
