@<TRIPOS>MOLECULE
3,4,5,8,9
 10 14 0 0 0
SMALL
GASTEIGER

@<TRIPOS>ATOM
      1 C           4.3246    8.0942    0.3019 C.3     1  UNL1        0.0000
      2 C           4.5692    8.7717    1.6152 C.3     1  UNL1        0.0000
      3 C           4.4984   10.1306    1.7397 C.3     1  UNL1        0.0000
      4 C           3.7562   10.8985    0.6395 C.3     1  UNL1        0.0000
      5 C           3.4134   10.0985   -0.4940 C.3     1  UNL1        0.0000
      6 C           4.1748    8.8255   -0.8108 C.3     1  UNL1        0.0000
      7 C           3.8893    7.5265    1.5126 C.3     1  UNL1        0.0000
      8 C           3.4841   10.8644    2.4281 C.3     1  UNL1        0.0000
      9 C           2.9216   11.7376    1.4733 C.3     1  UNL1        0.0000
     10 C           3.9775    9.7966   -1.7737 C.3     1  UNL1        0.0000
@<TRIPOS>BOND
     1    10     6    1
     2    10     5    1
     3     6     5    1
     4     6     1    1
     5     5     4    1
     6     1     7    1
     7     1     2    1
     8     4     9    1
     9     4     3    1
    10     4     8    1
    11     9     8    1
    12     7     2    1
    13     2     3    1
    14     3     8    1
