@<TRIPOS>MOLECULE
1,3,5,7,9
 10 10 0 0 0
SMALL
GASTEIGER

@<TRIPOS>ATOM
      1 C           4.1009    5.0832   12.8061 C.3     1  UNL1        0.0054
      2 H           3.4914    4.2007   12.9130 H       1  UNL1        0.0394
      3 C           4.2966    6.0768   13.7863 C.2     1  UNL1       -0.0763
      4 H           3.8712    6.0852   14.7763 H       1  UNL1        0.0578
      5 C           5.2678    6.9862   13.2922 C.2     1  UNL1       -0.0654
      6 H           5.7215    7.7834   13.8588 H       1  UNL1        0.0615
      7 C           5.6920    6.5342   12.0238 C.2     1  UNL1       -0.0654
      8 H           6.4955    6.9501   11.4404 H       1  UNL1        0.0615
      9 C           4.9460    5.3752   11.7059 C.2     1  UNL1       -0.0763
     10 H           5.1090    4.7393   10.8515 H       1  UNL1        0.0578
@<TRIPOS>BOND
     1    10     9    1
     2     8     7    1
     3     9     7    2
     4     9     1    1
     5     7     5    1
     6     1     2    1
     7     1     3    1
     8     5     3    2
     9     5     6    1
    10     3     4    1
