@<TRIPOS>MOLECULE
1,2,4,6,8
 24 24 0 0 0
SMALL
GASTEIGER

@<TRIPOS>ATOM
      1 C           1.1355    0.4511    4.1164 C.3     1  UNL1       -0.0077
      2 C           1.3392    1.1285    5.3427 C.3     1  UNL1       -0.0093
      3 H           1.9625    0.7797    6.1572 H       1  UNL1        0.0355
      4 C           0.7231    2.3938    5.2553 C.2     1  UNL1       -0.0834
      5 H           0.8204    3.1891    5.9839 H       1  UNL1        0.0572
      6 C           0.1413    2.5080    3.9785 C.2     1  UNL1       -0.0834
      7 H          -0.2912    3.4070    3.5582 H       1  UNL1        0.0572
      8 C           0.3871    1.3105    3.2764 C.3     1  UNL1       -0.0093
      9 H           0.1563    1.1213    2.2344 H       1  UNL1        0.0355
     10 C           1.6797   -0.9010    3.7624 C.3     1  UNL1       -0.0329
     11 H           1.2104   -1.2644    2.8453 H       1  UNL1        0.0283
     12 H           1.4445   -1.5991    4.5717 H       1  UNL1        0.0283
     13 C           3.1983   -0.8337    3.5447 C.3     1  UNL1       -0.0011
     14 H           3.4089   -0.0206    2.8441 H       1  UNL1        0.0426
     15 H           3.6967   -0.5931    4.5015 H       1  UNL1        0.0426
     16 N           3.7190   -2.0586    2.9618 N.3     1  UNL1       -0.3083
     17 C           5.0625   -1.8704    2.4558 C.3     1  UNL1       -0.0131
     18 H           5.3948   -2.7912    1.9783 H       1  UNL1        0.0391
     19 H           5.7847   -1.6061    3.2452 H       1  UNL1        0.0391
     20 H           5.0586   -1.0768    1.7100 H       1  UNL1        0.0391
     21 C           3.6679   -3.1718    3.8865 C.3     1  UNL1       -0.0131
     22 H           4.0646   -4.0587    3.3945 H       1  UNL1        0.0391
     23 H           2.6354   -3.3674    4.1665 H       1  UNL1        0.0391
     24 H           4.2553   -2.9874    4.8010 H       1  UNL1        0.0391
@<TRIPOS>BOND
     1    20    17    1
     2    18    17    1
     3     9     8    1
     4    17    16    1
     5    17    19    1
     6    14    13    1
     7    11    10    1
     8    16    13    1
     9    16    21    1
    10     8     6    1
    11     8     1    1
    12    22    21    1
    13    13    10    1
    14    13    15    1
    15     7     6    1
    16    10     1    1
    17    10    12    1
    18    21    23    1
    19    21    24    1
    20     6     4    2
    21     1     2    1
    22     4     2    1
    23     4     5    1
    24     2     3    1
