@<TRIPOS>MOLECULE
1,2,3,6,7
 24 24 0 0 0
SMALL
GASTEIGER

@<TRIPOS>ATOM
      1 C          -3.1088    0.4508    6.1162 C.3     1  UNL1       -0.0077
      2 C          -3.3126    1.1283    4.8899 C.3     1  UNL1       -0.0093
      3 C          -2.6966    2.3937    4.9775 C.2     1  UNL1       -0.0834
      4 H          -3.9360    0.7797    4.0755 H       1  UNL1        0.0355
      5 H          -2.7940    3.1891    4.2491 H       1  UNL1        0.0572
      6 C          -2.1146    2.5077    6.2543 C.2     1  UNL1       -0.0834
      7 C          -2.3602    1.3101    6.9561 C.3     1  UNL1       -0.0093
      8 C          -3.6528   -0.9014    6.4700 C.3     1  UNL1       -0.0329
      9 H          -3.1845   -1.2643    7.3877 H       1  UNL1        0.0283
     10 H          -3.4163   -1.5997    5.6612 H       1  UNL1        0.0283
     11 C          -5.1717   -0.8349    6.6859 C.3     1  UNL1       -0.0011
     12 H          -5.3836   -0.0215    7.3859 H       1  UNL1        0.0426
     13 H          -5.6692   -0.5950    5.7284 H       1  UNL1        0.0426
     14 N          -5.6923   -2.0598    7.2688 N.3     1  UNL1       -0.3083
     15 C          -7.0365   -1.8722    7.7734 C.3     1  UNL1       -0.0131
     16 H          -7.3687   -2.7929    8.2510 H       1  UNL1        0.0391
     17 H          -7.7581   -1.6087    6.9832 H       1  UNL1        0.0391
     18 H          -7.0338   -1.0782    8.5188 H       1  UNL1        0.0391
     19 C          -5.6397   -3.1734    6.3446 C.3     1  UNL1       -0.0131
     20 H          -6.0361   -4.0604    6.8368 H       1  UNL1        0.0391
     21 H          -4.6068   -3.3683    6.0655 H       1  UNL1        0.0391
     22 H          -6.2266   -2.9899    5.4296 H       1  UNL1        0.0391
     23 H          -1.6822    3.4067    6.6747 H       1  UNL1        0.0572
     24 H          -2.1294    1.1207    7.9981 H       1  UNL1        0.0355
@<TRIPOS>BOND
     1     4     2    1
     2     5     3    1
     3     2     3    1
     4     2     1    1
     5     3     6    2
     6    22    19    1
     7    10     8    1
     8    13    11    1
     9    21    19    1
    10     1     8    1
    11     1     7    1
    12     6    23    1
    13     6     7    1
    14    19    20    1
    15    19    14    1
    16     8    11    1
    17     8     9    1
    18    11    14    1
    19    11    12    1
    20     7    24    1
    21    17    15    1
    22    14    15    1
    23    15    16    1
    24    15    18    1
