@<TRIPOS>MOLECULE
2,4,6,8,10
 28 29 0 0 0
SMALL
GASTEIGER

@<TRIPOS>ATOM
      1 N           3.8278   -4.8181   -1.2671 N.3     1  UNL1       -0.3053
      2 C           6.4512   -7.4937    2.1764 C.2     1  UNL1       -0.0729
      3 H           7.2151   -6.8368    1.7864 H       1  UNL1        0.0581
      4 C           6.6835   -8.6925    2.8781 C.3     1  UNL1        0.0057
      5 H           7.6539   -9.1311    3.0679 H       1  UNL1        0.0394
      6 C           5.4316   -9.3158    3.1038 C.2     1  UNL1       -0.0761
      7 H           5.2768  -10.3125    3.4946 H       1  UNL1        0.0578
      8 C           4.4367   -8.4899    2.5530 C.2     1  UNL1       -0.0619
      9 H           3.3825   -8.7211    2.4908 H       1  UNL1        0.0617
     10 C           5.0585   -7.3537    1.9760 C.2     1  UNL1       -0.0478
     11 C           4.3324   -6.3021    1.1825 C.3     1  UNL1       -0.0138
     12 H           3.5390   -5.8733    1.8128 H       1  UNL1        0.0349
     13 C           3.6726   -6.9332   -0.0525 C.3     1  UNL1       -0.0333
     14 H           4.4472   -7.3707   -0.6850 H       1  UNL1        0.0283
     15 H           2.9786   -7.7217    0.2417 H       1  UNL1        0.0283
     16 C           5.2371   -5.1697    0.6963 C.3     1  UNL1       -0.0333
     17 H           5.7000   -4.6609    1.5428 H       1  UNL1        0.0283
     18 H           6.0183   -5.5799    0.0537 H       1  UNL1        0.0283
     19 C           4.4217   -4.1674   -0.1130 C.3     1  UNL1       -0.0009
     20 H           3.6496   -3.7115    0.5349 H       1  UNL1        0.0427
     21 H           5.0748   -3.3681   -0.4726 H       1  UNL1        0.0427
     22 C           2.9214   -5.8686   -0.8446 C.3     1  UNL1       -0.0009
     23 H           2.4809   -6.3187   -1.7387 H       1  UNL1        0.0427
     24 H           2.0980   -5.4653   -0.2243 H       1  UNL1        0.0427
     25 C           3.1759   -3.8697   -2.1412 C.3     1  UNL1       -0.0128
     26 H           3.9041   -3.1305   -2.4720 H       1  UNL1        0.0391
     27 H           2.3393   -3.3429   -1.6535 H       1  UNL1        0.0391
     28 H           2.7917   -4.3945   -3.0152 H       1  UNL1        0.0391
@<TRIPOS>BOND
     1    28    25    1
     2    26    25    1
     3    25    27    1
     4    25     1    1
     5    23    22    1
     6     1    22    1
     7     1    19    1
     8    22    24    1
     9    22    13    1
    10    14    13    1
    11    21    19    1
    12    19    20    1
    13    19    16    1
    14    13    15    1
    15    13    11    1
    16    18    16    1
    17    16    11    1
    18    16    17    1
    19    11    12    1
    20    11    10    1
    21     3     2    1
    22    10     2    2
    23    10     8    1
    24     2     4    1
    25     9     8    1
    26     8     6    2
    27     4     5    1
    28     4     6    1
    29     6     7    1
