@<TRIPOS>MOLECULE
1,2,3,4,5
 28 28 0 0 0
SMALL
GASTEIGER

@<TRIPOS>ATOM
      1 C           3.0460    6.3195    3.7470 C.2     1  UNL1       -0.0556
      2 C           3.0216    6.7021    2.3608 C.3     1  UNL1        0.0234
      3 C           1.7012    6.5143    1.8797 C.2     1  UNL1       -0.0584
      4 C           0.9058    6.0137    2.9632 C.2     1  UNL1       -0.0477
      5 C           1.7211    5.9687    4.1302 C.2     1  UNL1       -0.0475
      6 C           4.1921    6.5634    4.6852 C.3     1  UNL1       -0.0332
      7 H           5.1382    6.3917    4.1685 H       1  UNL1        0.0308
      8 H           4.1453    5.8624    5.5197 H       1  UNL1        0.0308
      9 C           4.1395    7.3539    1.6078 C.3     1  UNL1       -0.0510
     10 H           5.1046    7.0812    2.0265 H       1  UNL1        0.0242
     11 H           4.0389    8.4399    1.6566 H       1  UNL1        0.0242
     12 H           4.1269    7.0609    0.5605 H       1  UNL1        0.0242
     13 C           1.1839    6.9335    0.5396 C.3     1  UNL1       -0.0424
     14 H           0.8274    7.9643    0.5848 H       1  UNL1        0.0275
     15 H           0.3571    6.3021    0.2240 H       1  UNL1        0.0275
     16 H           1.9647    6.8763   -0.2145 H       1  UNL1        0.0275
     17 C          -0.5860    5.8916    2.9571 C.3     1  UNL1       -0.0395
     18 H          -0.9510    5.5911    1.9780 H       1  UNL1        0.0278
     19 H          -1.0391    6.8542    3.2037 H       1  UNL1        0.0278
     20 H          -0.9170    5.1608    3.6898 H       1  UNL1        0.0278
     21 C           1.2066    5.7845    5.5206 C.3     1  UNL1       -0.0395
     22 H           2.0185    5.7919    6.2418 H       1  UNL1        0.0278
     23 H           0.6567    4.8533    5.6239 H       1  UNL1        0.0278
     24 H           0.5294    6.6054    5.7645 H       1  UNL1        0.0278
     25 C           4.1587    7.9974    5.2195 C.3     1  UNL1       -0.0615
     26 H           4.9867    8.1674    5.9039 H       1  UNL1        0.0233
     27 H           3.2272    8.1841    5.7489 H       1  UNL1        0.0233
     28 H           4.2350    8.7095    4.4014 H       1  UNL1        0.0233
@<TRIPOS>BOND
     1    16    13    1
     2    15    13    1
     3    13    14    1
     4    13     3    1
     5    12     9    1
     6     9    11    1
     7     9    10    1
     8     9     2    1
     9     3     2    1
    10     3     4    2
    11    18    17    1
    12     2     1    1
    13    17     4    1
    14    17    19    1
    15    17    20    1
    16     4     5    1
    17     1     5    2
    18     1     6    1
    19     5    21    1
    20     7     6    1
    21    28    25    1
    22     6    25    1
    23     6     8    1
    24    25    27    1
    25    25    26    1
    26    21    23    1
    27    21    24    1
    28    21    22    1
