@<TRIPOS>MOLECULE
3,4,6,7,9
 34 34 0 0 0
SMALL
GASTEIGER

@<TRIPOS>ATOM
      1 SI          3.7278   -9.9235    6.4944 Si      1  UNL1        0.0000
      2 SI          9.0272   -7.4644    5.6341 Si      1  UNL1        0.0000
      3 C           7.1720   -7.6837    5.8922 C.3     1  UNL1        0.0000
      4 C           6.4137   -8.8733    5.7703 C.3     1  UNL1        0.0000
      5 H           6.8193   -9.8374    5.4966 H       1  UNL1        0.0000
      6 C           5.0896   -8.6483    6.2198 C.3     1  UNL1        0.0000
      7 C           5.0568   -7.3071    6.6989 C.2     1  UNL1        0.0000
      8 H           4.2164   -6.8434    7.2001 H       1  UNL1        0.0000
      9 C           6.3133   -6.7273    6.5043 C.2     1  UNL1        0.0000
     10 H           6.6105   -5.7372    6.8266 H       1  UNL1        0.0000
     11 C           9.6815   -6.4221    7.0944 C.3     1  UNL1        0.0000
     12 H          10.7664   -6.3916    7.0916 H       1  UNL1        0.0000
     13 H           9.3656   -6.8260    8.0517 H       1  UNL1        0.0000
     14 H           9.3261   -5.3981    7.0338 H       1  UNL1        0.0000
     15 C           9.8230   -9.2043    5.6770 C.3     1  UNL1        0.0000
     16 H          10.9038   -9.1241    5.6305 H       1  UNL1        0.0000
     17 H           9.5098   -9.8240    4.8419 H       1  UNL1        0.0000
     18 H           9.5741   -9.7339    6.5913 H       1  UNL1        0.0000
     19 C           9.4708   -6.5976    3.9899 C.3     1  UNL1        0.0000
     20 H          10.4672   -6.1687    4.0407 H       1  UNL1        0.0000
     21 H           8.7743   -5.7897    3.7795 H       1  UNL1        0.0000
     22 H           9.4557   -7.2814    3.1456 H       1  UNL1        0.0000
     23 C           4.5646  -11.6408    6.6022 C.3     1  UNL1        0.0000
     24 H           3.8335  -12.3998    6.8596 H       1  UNL1        0.0000
     25 H           5.3377  -11.6605    7.3638 H       1  UNL1        0.0000
     26 H           5.0204  -11.9384    5.6625 H       1  UNL1        0.0000
     27 C           2.8878   -9.5061    8.1578 C.3     1  UNL1        0.0000
     28 H           2.2058  -10.2961    8.4553 H       1  UNL1        0.0000
     29 H           2.3119   -8.5886    8.0842 H       1  UNL1        0.0000
     30 H           3.6130   -9.3788    8.9560 H       1  UNL1        0.0000
     31 C           2.4051   -9.9450    5.1158 C.3     1  UNL1        0.0000
     32 H           1.4946  -10.4209    5.4679 H       1  UNL1        0.0000
     33 H           2.7359  -10.4901    4.2360 H       1  UNL1        0.0000
     34 H           2.1508   -8.9330    4.8103 H       1  UNL1        0.0000
@<TRIPOS>BOND
     1    22    19    1
     2    21    19    1
     3    19    20    1
     4    19     2    1
     5    33    31    1
     6    34    31    1
     7    17    15    1
     8    31    32    1
     9    31     1    1
    10     5     4    1
    11    16    15    1
    12     2    15    1
    13     2     3    1
    14     2    11    1
    15    26    23    1
    16    15    18    1
    17     4     3    1
    18     4     6    1
    19     3     9    1
    20     6     1    1
    21     6     7    1
    22     1    23    1
    23     1    27    1
    24     9     7    2
    25     9    10    1
    26    23    24    1
    27    23    25    1
    28     7     8    1
    29    14    11    1
    30    12    11    1
    31    11    13    1
    32    29    27    1
    33    27    28    1
    34    27    30    1
