@<TRIPOS>MOLECULE
3,5,7,8,10
 34 34 0 0 0
SMALL
GASTEIGER

@<TRIPOS>ATOM
      1 SI          4.6983    4.2790    4.6680 Si      1  UNL1        0.0000
      2 SI          4.8103    1.0583   -0.2870 Si      1  UNL1        0.0000
      3 C           6.3952    2.2860    3.3240 C.2     1  UNL1        0.0000
      4 H           7.2326    2.4777    3.9824 H       1  UNL1        0.0000
      5 C           6.4401    1.5513    2.1211 C.2     1  UNL1        0.0000
      6 H           7.3219    1.0885    1.6989 H       1  UNL1        0.0000
      7 C           5.1900    1.6633    1.4689 C.3     1  UNL1        0.0000
      8 C           4.3823    2.4962    2.2965 C.3     1  UNL1        0.0000
      9 H           3.3935    2.8600    2.0382 H       1  UNL1        0.0000
     10 C           5.1273    2.9033    3.4351 C.3     1  UNL1        0.0000
     11 C           5.2818    3.7468    6.4088 C.3     1  UNL1        0.0000
     12 H           5.1058    4.5417    7.1261 H       1  UNL1        0.0000
     13 H           6.3472    3.5310    6.4209 H       1  UNL1        0.0000
     14 H           4.7566    2.8632    6.7598 H       1  UNL1        0.0000
     15 C           5.7203    5.7823    4.0880 C.3     1  UNL1        0.0000
     16 H           5.4617    6.0773    3.0759 H       1  UNL1        0.0000
     17 H           6.7865    5.5800    4.1081 H       1  UNL1        0.0000
     18 H           5.5362    6.6332    4.7345 H       1  UNL1        0.0000
     19 C           2.8389    4.6842    4.5816 C.3     1  UNL1        0.0000
     20 H           2.5718    5.0916    3.6105 H       1  UNL1        0.0000
     21 H           2.5796    5.4289    5.3270 H       1  UNL1        0.0000
     22 H           2.2191    3.8110    4.7598 H       1  UNL1        0.0000
     23 C           6.0856    1.9167   -1.4157 C.3     1  UNL1        0.0000
     24 H           6.0229    2.9976   -1.3412 H       1  UNL1        0.0000
     25 H           5.9094    1.6492   -2.4517 H       1  UNL1        0.0000
     26 H           7.1039    1.6298   -1.1731 H       1  UNL1        0.0000
     27 C           3.0377    1.5606   -0.7677 C.3     1  UNL1        0.0000
     28 H           2.3004    1.1445   -0.0877 H       1  UNL1        0.0000
     29 H           2.8008    1.2059   -1.7655 H       1  UNL1        0.0000
     30 H           2.9197    2.6404   -0.7707 H       1  UNL1        0.0000
     31 C           5.0676   -0.8363   -0.3561 C.3     1  UNL1        0.0000
     32 H           6.0557   -1.1223   -0.0029 H       1  UNL1        0.0000
     33 H           4.9732   -1.1955   -1.3759 H       1  UNL1        0.0000
     34 H           4.3288   -1.3590    0.2457 H       1  UNL1        0.0000
@<TRIPOS>BOND
     1    25    23    1
     2    29    27    1
     3    23    24    1
     4    23    26    1
     5    23     2    1
     6    33    31    1
     7    30    27    1
     8    27     2    1
     9    27    28    1
    10    31     2    1
    11    31    32    1
    12    31    34    1
    13     2     7    1
    14     7     5    1
    15     7     8    1
    16     6     5    1
    17     9     8    1
    18     5     3    2
    19     8    10    1
    20    16    15    1
    21     3    10    1
    22     3     4    1
    23    10     1    1
    24    20    19    1
    25    15    17    1
    26    15     1    1
    27    15    18    1
    28    19     1    1
    29    19    22    1
    30    19    21    1
    31     1    11    1
    32    11    13    1
    33    11    14    1
    34    11    12    1
