@<TRIPOS>MOLECULE
1,3,5,7,9
 29 30 0 0 0
SMALL
GASTEIGER

@<TRIPOS>ATOM
      1 C           5.5270   -0.6698    5.3538 C.2     1  UNL1       -0.0727
      2 H           5.4450   -0.3377    6.3794 H       1  UNL1        0.0581
      3 C           6.6245   -0.4167    4.5110 C.2     1  UNL1       -0.0651
      4 H           7.5425    0.0714    4.8081 H       1  UNL1        0.0615
      5 C           6.4058   -1.0981    3.2909 C.2     1  UNL1       -0.0651
      6 H           7.1281   -1.2317    2.4985 H       1  UNL1        0.0615
      7 C           5.1748   -1.7693    3.3877 C.2     1  UNL1       -0.0727
      8 H           4.7667   -2.4365    2.6413 H       1  UNL1        0.0581
      9 C           4.6218   -1.5091    4.6632 C.3     1  UNL1        0.0228
     10 C           3.2905   -2.0350    5.1389 C.3     1  UNL1       -0.0307
     11 H           2.5140   -1.5839    4.5029 H       1  UNL1        0.0311
     12 C           2.9923   -1.6699    6.5948 C.3     1  UNL1       -0.0641
     13 H           3.7603   -2.0836    7.2529 H       1  UNL1        0.0250
     14 H           2.9942   -0.5834    6.6962 H       1  UNL1        0.0250
     15 C           1.6195   -2.1876    6.9911 C.3     1  UNL1       -0.0907
     16 H           1.3969   -1.9383    8.0302 H       1  UNL1        0.0059
     17 H           0.8545   -1.7428    6.3521 H       1  UNL1        0.0059
     18 N           1.5552   -3.6658    6.8326 N.4     1  UNL1        0.3778
     19 H           2.3174   -4.0565    7.3989 H       1  UNL1       -0.0822
     20 C           0.2782   -4.2143    7.3126 C.3     1  UNL1       -0.1032
     21 H           0.1226   -3.9535    8.3578 H       1  UNL1        0.0023
     22 H           0.2692   -5.2985    7.2156 H       1  UNL1        0.0023
     23 H          -0.5396   -3.8023    6.7236 H       1  UNL1        0.0023
     24 C           1.8266   -4.0484    5.4231 C.3     1  UNL1       -0.0907
     25 H           1.0566   -3.5935    4.7965 H       1  UNL1        0.0059
     26 H           1.7550   -5.1345    5.3353 H       1  UNL1        0.0059
     27 C           3.2025   -3.5602    4.9919 C.3     1  UNL1       -0.0641
     28 H           3.3586   -3.8463    3.9531 H       1  UNL1        0.0250
     29 H           3.9842   -4.0374    5.5883 H       1  UNL1        0.0250
@<TRIPOS>BOND
     1     6     5    1
     2     8     7    1
     3     5     7    2
     4     5     3    1
     5     7     9    1
     6    28    27    1
     7    11    10    1
     8     3     4    1
     9     3     1    2
    10     9    10    1
    11     9     1    1
    12    25    24    1
    13    27    10    1
    14    27    24    1
    15    27    29    1
    16    10    12    1
    17    26    24    1
    18     1     2    1
    19    24    18    1
    20    17    15    1
    21    12    14    1
    22    12    15    1
    23    12    13    1
    24    23    20    1
    25    18    15    1
    26    18    20    1
    27    18    19    1
    28    15    16    1
    29    22    20    1
    30    20    21    1
