@<TRIPOS>MOLECULE
1,2,3,4,5
 10 10 0 0 0
SMALL
GASTEIGER

@<TRIPOS>ATOM
      1 C          -0.6871    6.5650    3.6178 C.3     1  UNL1       -0.0235
      2 C          -0.2264    6.7311    4.9440 C.3     1  UNL1       -0.0127
      3 C          -1.3264    7.1432    5.7374 C.2     1  UNL1       -0.0837
      4 C          -2.4585    7.2208    4.9070 C.2     1  UNL1       -0.0837
      5 C          -2.0706    6.8667    3.5943 C.3     1  UNL1       -0.0127
      6 H          -0.1272    6.1082    2.8097 H       1  UNL1        0.0315
      7 H           0.7360    6.4119    5.3288 H       1  UNL1        0.0352
      8 H          -1.3279    7.2245    6.8179 H       1  UNL1        0.0572
      9 H          -3.4759    7.3909    5.2392 H       1  UNL1        0.0572
     10 H          -2.7533    6.6784    2.7728 H       1  UNL1        0.0352
@<TRIPOS>BOND
     1    10     5    1
     2     6     1    1
     3     5     1    1
     4     5     4    1
     5     1     2    1
     6     4     9    1
     7     4     3    2
     8     2     7    1
     9     2     3    1
    10     3     8    1
