@<TRIPOS>MOLECULE
1,2,3,4,5
 10 10 0 0 0
SMALL
GASTEIGER

@<TRIPOS>ATOM
      1 C           3.6340    1.2869    1.6731 C.2     1  UNL1       -0.0837
      2 C           3.5165    2.0441    2.8644 C.3     1  UNL1       -0.0127
      3 C           3.6264    1.1570    3.9592 C.3     1  UNL1       -0.0235
      4 C           3.8456   -0.1566    3.4396 C.3     1  UNL1       -0.0127
      5 C           3.8329   -0.0619    2.0210 C.2     1  UNL1       -0.0837
      6 H           3.4942    1.6631    0.6679 H       1  UNL1        0.0572
      7 H           3.2387    3.0876    2.9168 H       1  UNL1        0.0352
      8 H           3.4184    1.3894    4.9966 H       1  UNL1        0.0315
      9 H           3.8089   -1.0756    4.0129 H       1  UNL1        0.0352
     10 H           3.8618   -0.8966    1.3339 H       1  UNL1        0.0572
@<TRIPOS>BOND
     1     6     1    1
     2    10     5    1
     3     1     5    2
     4     1     2    1
     5     5     4    1
     6     2     7    1
     7     2     3    1
     8     4     3    1
     9     4     9    1
    10     3     8    1
