@<TRIPOS>MOLECULE
1,2,3,4,5
 10 10 0 0 0
SMALL
GASTEIGER

@<TRIPOS>ATOM
      1 C           7.8316    3.1992    2.0407 C.2     1  UNL1       -0.0837
      2 C           9.0937    3.7640    2.2865 C.2     1  UNL1       -0.0837
      3 C           9.0351    5.1433    1.9807 C.3     1  UNL1       -0.0127
      4 C           7.7202    5.4392    1.5636 C.3     1  UNL1       -0.0235
      5 C           6.9700    4.2269    1.5810 C.3     1  UNL1       -0.0127
      6 H           7.5339    2.1859    2.2774 H       1  UNL1        0.0572
      7 H           9.9360    3.2508    2.7348 H       1  UNL1        0.0572
      8 H           9.8104    5.8660    2.1999 H       1  UNL1        0.0352
      9 H           7.2985    6.4280    1.4283 H       1  UNL1        0.0315
     10 H           5.8921    4.1524    1.4853 H       1  UNL1        0.0352
@<TRIPOS>BOND
     1     9     4    1
     2    10     5    1
     3     4     5    1
     4     4     3    1
     5     5     1    1
     6     3     8    1
     7     3     2    1
     8     1     6    1
     9     1     2    2
    10     2     7    1
