@<TRIPOS>MOLECULE
1,2,3,4,5
 10 10 0 0 0
SMALL
GASTEIGER

@<TRIPOS>ATOM
      1 C           1.7169    3.7174   -0.8485 C.2     1  UNL1       -0.0654
      2 C           1.7411    2.3287   -1.1608 C.2     1  UNL1       -0.0654
      3 C           3.0774    1.9280   -1.2772 C.2     1  UNL1       -0.0763
      4 C           3.8962    3.0552   -0.9810 C.3     1  UNL1        0.0054
      5 C           3.0342    4.1691   -0.7616 C.2     1  UNL1       -0.0763
      6 H           0.8246    4.3300   -0.8171 H       1  UNL1        0.0615
      7 H           0.8722    1.7338   -1.4179 H       1  UNL1        0.0615
      8 H           3.4298    0.9699   -1.6338 H       1  UNL1        0.0578
      9 H           4.9590    3.1242   -1.1887 H       1  UNL1        0.0394
     10 H           3.3561    5.1972   -0.6497 H       1  UNL1        0.0578
@<TRIPOS>BOND
     1     8     3    1
     2     7     2    1
     3     3     2    2
     4     3     4    1
     5     9     4    1
     6     2     1    1
     7     4     5    1
     8     1     6    1
     9     1     5    2
    10     5    10    1
