@<TRIPOS>MOLECULE
1,2,3,4,5
 25 25 0 0 0
SMALL
GASTEIGER

@<TRIPOS>ATOM
      1 C           2.7721    5.8392    5.1928 C.3     1  UNL1        0.0052
      2 C           1.5506    5.1744    5.5154 C.2     1  UNL1       -0.0658
      3 C           0.5825    6.1597    5.8130 C.2     1  UNL1       -0.0658
      4 C           1.1998    7.4400    5.6790 C.3     1  UNL1        0.0052
      5 C           2.5658    7.2436    5.3229 C.3     1  UNL1       -0.0053
      6 C           4.0656    5.1373    4.8982 C.3     1  UNL1       -0.0545
      7 H           4.4658    4.6836    5.8081 H       1  UNL1        0.0239
      8 H           4.8095    5.8297    4.5062 H       1  UNL1        0.0239
      9 H           3.9082    4.3426    4.1664 H       1  UNL1        0.0239
     10 C           1.4091    3.6849    5.6236 C.3     1  UNL1       -0.0430
     11 H           0.3723    3.3992    5.7892 H       1  UNL1        0.0275
     12 H           2.0068    3.3133    6.4593 H       1  UNL1        0.0275
     13 H           1.7579    3.1953    4.7128 H       1  UNL1        0.0275
     14 C          -0.8195    5.9500    6.3038 C.3     1  UNL1       -0.0430
     15 H          -0.8893    6.2164    7.3612 H       1  UNL1        0.0275
     16 H          -1.1252    4.9117    6.1899 H       1  UNL1        0.0275
     17 H          -1.5205    6.5754    5.7490 H       1  UNL1        0.0275
     18 C           0.5232    8.7426    5.9929 C.3     1  UNL1       -0.0545
     19 H           1.1312    9.5889    5.6771 H       1  UNL1        0.0239
     20 H           0.3483    8.8281    7.0677 H       1  UNL1        0.0239
     21 H          -0.4436    8.8001    5.4890 H       1  UNL1        0.0239
     22 C           3.6323    8.3028    5.2794 C.3     1  UNL1       -0.0574
     23 H           4.0738    8.4242    6.2719 H       1  UNL1        0.0236
     24 H           3.2231    9.2645    4.9704 H       1  UNL1        0.0236
     25 H           4.4287    8.0350    4.5851 H       1  UNL1        0.0236
@<TRIPOS>BOND
     1     9     6    1
     2     8     6    1
     3    25    22    1
     4    13    10    1
     5     6     1    1
     6     6     7    1
     7    24    22    1
     8     1     5    1
     9     1     2    1
    10    22     5    1
    11    22    23    1
    12     5     4    1
    13    21    18    1
    14     2    10    1
    15     2     3    2
    16    10    11    1
    17    10    12    1
    18    19    18    1
    19     4     3    1
    20     4    18    1
    21    17    14    1
    22     3    14    1
    23    18    20    1
    24    16    14    1
    25    14    15    1
