@<TRIPOS>MOLECULE
1,3,5,7,9
 13 13 0 0 0
SMALL
GASTEIGER

@<TRIPOS>ATOM
      1 C           8.0980    1.5681    2.1435 C.2     1  UNL1       -0.0625
      2 H           8.6694    1.8691    3.0062 H       1  UNL1        0.0617
      3 C           7.2441    0.4399    2.0763 C.2     1  UNL1       -0.0761
      4 H           7.0286   -0.2387    2.8840 H       1  UNL1        0.0578
      5 C           6.8182    0.3050    0.7380 C.3     1  UNL1        0.0057
      6 H           6.2533   -0.5207    0.3358 H       1  UNL1        0.0394
      7 C           7.4504    1.3192   -0.0330 C.2     1  UNL1       -0.0734
      8 H           7.4195    1.4041   -1.1071 H       1  UNL1        0.0581
      9 C           8.2526    2.0966    0.8329 C.2     1  UNL1       -0.0541
     10 C           9.2070    3.1749    0.4304 C.3     1  UNL1       -0.0400
     11 H          10.1790    2.7369    0.1967 H       1  UNL1        0.0277
     12 H           9.3432    3.8915    1.2369 H       1  UNL1        0.0277
     13 H           8.8502    3.7018   -0.4514 H       1  UNL1        0.0277
@<TRIPOS>BOND
     1     8     7    1
     2    13    10    1
     3     7     5    1
     4     7     9    2
     5    11    10    1
     6     6     5    1
     7    10     9    1
     8    10    12    1
     9     5     3    1
    10     9     1    1
    11     3     1    2
    12     3     4    1
    13     1     2    1
