@<TRIPOS>MOLECULE
3,4,6,8,10
 66 73 0 0 0
SMALL
GASTEIGER

@<TRIPOS>ATOM
      1 SI         10.2955   14.4015    7.9996 Si      1  UNL1        0.0000
      2 SI          9.2161   16.4169    7.5152 Si      1  UNL1        0.0000
      3 C          11.9670   14.7816    8.7744 C.3     1  UNL1        0.0000
      4 C          12.9518   15.6872    8.3189 C.3     1  UNL1        0.0000
      5 H          12.8889   16.2857    7.4234 H       1  UNL1        0.0000
      6 C          13.9767   15.7759    9.2977 C.2     1  UNL1        0.0000
      7 H          14.8002   16.4709    9.2863 H       1  UNL1        0.0000
      8 C          13.6039   14.9686   10.3954 C.2     1  UNL1        0.0000
      9 H          14.1244   14.9112   11.3363 H       1  UNL1        0.0000
     10 C          12.4034   14.3159   10.0538 C.3     1  UNL1        0.0000
     11 H          11.7975   13.7115   10.7096 H       1  UNL1        0.0000
     12 C          10.4908   13.3918    6.4089 C.ar    1  UNL1        0.0000
     13 C           9.4008   12.7002    5.8868 C.ar    1  UNL1        0.0000
     14 H           8.4618   12.7117    6.4223 H       1  UNL1        0.0000
     15 C           9.5050   11.9971    4.7012 C.ar    1  UNL1        0.0000
     16 H           8.6495   11.4624    4.3141 H       1  UNL1        0.0000
     17 C          10.7059   11.9765    4.0106 C.ar    1  UNL1        0.0000
     18 H          10.7906   11.4234    3.0866 H       1  UNL1        0.0000
     19 C          11.7963   12.6686    4.5101 C.ar    1  UNL1        0.0000
     20 H          12.7366   12.6599    3.9782 H       1  UNL1        0.0000
     21 C          11.6830   13.3737    5.6941 C.ar    1  UNL1        0.0000
     22 H          12.5385   13.9135    6.0781 H       1  UNL1        0.0000
     23 C           9.4113   13.3134    9.2808 C.ar    1  UNL1        0.0000
     24 C           9.6193   11.9373    9.3129 C.ar    1  UNL1        0.0000
     25 H          10.2704   11.4836    8.5803 H       1  UNL1        0.0000
     26 C           9.0059   11.1450   10.2663 C.ar    1  UNL1        0.0000
     27 H           9.1834   10.0793   10.2765 H       1  UNL1        0.0000
     28 C           8.1664   11.7179   11.2073 C.ar    1  UNL1        0.0000
     29 H           7.6839   11.1012   11.9518 H       1  UNL1        0.0000
     30 C           7.9486   13.0856   11.1903 C.ar    1  UNL1        0.0000
     31 H           7.2957   13.5396   11.9223 H       1  UNL1        0.0000
     32 C           8.5683   13.8731   10.2364 C.ar    1  UNL1        0.0000
     33 H           8.3981   14.9413   10.2352 H       1  UNL1        0.0000
     34 C           8.8176   17.3927    9.0931 C.ar    1  UNL1        0.0000
     35 C           9.8075   17.5893   10.0536 C.ar    1  UNL1        0.0000
     36 H          10.7986   17.1932    9.8804 H       1  UNL1        0.0000
     37 C           9.5420   18.2801   11.2212 C.ar    1  UNL1        0.0000
     38 H          10.3235   18.4235   11.9537 H       1  UNL1        0.0000
     39 C           8.2732   18.7864   11.4527 C.ar    1  UNL1        0.0000
     40 H           8.0625   19.3257   12.3648 H       1  UNL1        0.0000
     41 C           7.2764   18.5968   10.5106 C.ar    1  UNL1        0.0000
     42 H           6.2849   18.9887   10.6868 H       1  UNL1        0.0000
     43 C           7.5491   17.9060    9.3431 C.ar    1  UNL1        0.0000
     44 H           6.7675   17.7583    8.6113 H       1  UNL1        0.0000
     45 C          10.3664   17.4673    6.4324 C.ar    1  UNL1        0.0000
     46 C          10.7651   18.7502    6.7925 C.ar    1  UNL1        0.0000
     47 H          10.3798   19.1867    7.7030 H       1  UNL1        0.0000
     48 C          11.6444   19.4717    6.0042 C.ar    1  UNL1        0.0000
     49 H          11.9413   20.4679    6.2997 H       1  UNL1        0.0000
     50 C          12.1442   18.9178    4.8378 C.ar    1  UNL1        0.0000
     51 H          12.8323   19.4785    4.2220 H       1  UNL1        0.0000
     52 C          11.7576   17.6407    4.4636 C.ar    1  UNL1        0.0000
     53 H          12.1448   17.2021    3.5552 H       1  UNL1        0.0000
     54 C          10.8783   16.9254    5.2552 C.ar    1  UNL1        0.0000
     55 H          10.5818   15.9286    4.9589 H       1  UNL1        0.0000
     56 C           7.6070   16.0790    6.5731 C.ar    1  UNL1        0.0000
     57 C           6.7014   15.1434    7.0670 C.ar    1  UNL1        0.0000
     58 H           6.9210   14.6328    7.9949 H       1  UNL1        0.0000
     59 C           5.5280   14.8606    6.3931 C.ar    1  UNL1        0.0000
     60 H           4.8365   14.1330    6.7937 H       1  UNL1        0.0000
     61 C           5.2395   15.5095    5.2035 C.ar    1  UNL1        0.0000
     62 H           4.3236   15.2901    4.6743 H       1  UNL1        0.0000
     63 C           6.1304   16.4399    4.6964 C.ar    1  UNL1        0.0000
     64 H           5.9105   16.9486    3.7686 H       1  UNL1        0.0000
     65 C           7.3021   16.7195    5.3772 C.ar    1  UNL1        0.0000
     66 H           7.9940   17.4465    4.9764 H       1  UNL1        0.0000
@<TRIPOS>BOND
     1    18    17    1
     2    53    52    1
     3    64    63    1
     4    20    19    1
     5    17    19   ar
     6    17    15   ar
     7    51    50    1
     8    16    15    1
     9    52    50   ar
    10    52    54   ar
    11    19    21   ar
    12    62    61    1
    13    63    61   ar
    14    63    65   ar
    15    15    13   ar
    16    50    48   ar
    17    55    54    1
    18    66    65    1
    19    61    59   ar
    20    54    45   ar
    21    65    56   ar
    22    21    22    1
    23    21    12   ar
    24    13    12   ar
    25    13    14    1
    26    48    49    1
    27    48    46   ar
    28    59    60    1
    29    59    57   ar
    30    12     1    1
    31    45    46   ar
    32    45     2    1
    33    56    57   ar
    34    56     2    1
    35    46    47    1
    36    57    58    1
    37     5     4    1
    38     2     1    1
    39     2    34    1
    40     1     3    1
    41     1    23    1
    42     4     3    1
    43     4     6    1
    44    25    24    1
    45    44    43    1
    46     3    10    1
    47    34    43   ar
    48    34    35   ar
    49    23    24   ar
    50    23    32   ar
    51     7     6    1
    52     6     8    2
    53    24    26   ar
    54    43    41   ar
    55    36    35    1
    56    35    37   ar
    57    10     8    1
    58    10    11    1
    59    33    32    1
    60    32    30   ar
    61    26    27    1
    62    26    28   ar
    63     8     9    1
    64    41    42    1
    65    41    39   ar
    66    30    28   ar
    67    30    31    1
    68    28    29    1
    69    37    39   ar
    70    37    38    1
    71    39    40    1
    72     1    13    0
    73     2    54    0
