@<TRIPOS>MOLECULE
3,5,7,9,11
 38 39 0 0 0
SMALL
GASTEIGER

@<TRIPOS>ATOM
      1 SI          3.6602    4.3017    1.9186 Si      1  UNL1        0.0000
      2 SI          4.5823    5.1367    3.9105 Si      1  UNL1        0.0000
      3 C           2.4053    6.4208    0.2291 C.3     1  UNL1        0.0000
      4 H           1.4223    6.3213    0.6593 H       1  UNL1        0.0000
      5 C           2.8019    7.4279   -0.6746 C.2     1  UNL1        0.0000
      6 H           2.1772    8.2093   -1.0713 H       1  UNL1        0.0000
      7 C           4.1913    7.2868   -0.8907 C.2     1  UNL1        0.0000
      8 H           4.8106    7.9619   -1.4581 H       1  UNL1        0.0000
      9 C           4.6552    6.2419   -0.0537 C.3     1  UNL1        0.0000
     10 H           5.6878    5.9656    0.0851 H       1  UNL1        0.0000
     11 C           3.5579    5.6921    0.6489 C.3     1  UNL1        0.0000
     12 C           1.8978    3.6068    2.1557 C.3     1  UNL1        0.0000
     13 H           1.4762    3.2611    1.2165 H       1  UNL1        0.0000
     14 H           1.2252    4.3531    2.5672 H       1  UNL1        0.0000
     15 H           1.9075    2.7668    2.8433 H       1  UNL1        0.0000
     16 C           4.7240    2.9583    1.0727 C.3     1  UNL1        0.0000
     17 H           4.3553    2.7536    0.0697 H       1  UNL1        0.0000
     18 H           4.7149    2.0276    1.6309 H       1  UNL1        0.0000
     19 H           5.7586    3.2734    0.9777 H       1  UNL1        0.0000
     20 C           3.6581    6.7047    4.4978 C.3     1  UNL1        0.0000
     21 H           4.0663    7.0955    5.4254 H       1  UNL1        0.0000
     22 H           2.6025    6.5071    4.6569 H       1  UNL1        0.0000
     23 H           3.7313    7.4900    3.7514 H       1  UNL1        0.0000
     24 C           6.4233    5.6166    3.6917 C.3     1  UNL1        0.0000
     25 H           6.5341    6.4034    2.9514 H       1  UNL1        0.0000
     26 H           7.0157    4.7691    3.3611 H       1  UNL1        0.0000
     27 H           6.8587    5.9751    4.6203 H       1  UNL1        0.0000
     28 C           4.4947    3.8027    5.2622 C.ar    1  UNL1        0.0000
     29 C           5.2129    2.6189    5.1098 C.ar    1  UNL1        0.0000
     30 H           5.8288    2.4863    4.2315 H       1  UNL1        0.0000
     31 C           5.1563    1.6148    6.0579 C.ar    1  UNL1        0.0000
     32 H           5.7255    0.7063    5.9196 H       1  UNL1        0.0000
     33 C           4.3681    1.7721    7.1860 C.ar    1  UNL1        0.0000
     34 H           4.3204    0.9895    7.9293 H       1  UNL1        0.0000
     35 C           3.6415    2.9381    7.3540 C.ar    1  UNL1        0.0000
     36 H           3.0235    3.0673    8.2314 H       1  UNL1        0.0000
     37 C           3.7063    3.9384    6.4003 C.ar    1  UNL1        0.0000
     38 H           3.1356    4.8437    6.5442 H       1  UNL1        0.0000
@<TRIPOS>BOND
     1     8     7    1
     2     6     5    1
     3     7     5    2
     4     7     9    1
     5     5     3    1
     6     9    10    1
     7     9    11    1
     8    17    16    1
     9     3    11    1
    10     3     4    1
    11    11     1    1
    12    19    16    1
    13    16    18    1
    14    16     1    1
    15    13    12    1
    16     1    12    1
    17     1     2    1
    18    12    14    1
    19    12    15    1
    20    25    24    1
    21    26    24    1
    22    24     2    1
    23    24    27    1
    24    23    20    1
    25     2    20    1
    26     2    28    1
    27    30    29    1
    28    20    22    1
    29    20    21    1
    30    29    28   ar
    31    29    31   ar
    32    28    37   ar
    33    32    31    1
    34    31    33   ar
    35    37    38    1
    36    37    35   ar
    37    33    35   ar
    38    33    34    1
    39    35    36    1
