@<TRIPOS>MOLECULE
1,3,5,7,9
 10 10 0 0 0
SMALL
GASTEIGER

@<TRIPOS>ATOM
      1 C          -0.9428    7.0845   13.5668 C.2     1  UNL1       -0.0763
      2 H          -1.7563    7.5748   14.0846 H       1  UNL1        0.0578
      3 C          -0.3412    7.5288   12.3633 C.2     1  UNL1       -0.0654
      4 H          -0.6369    8.4007   11.7925 H       1  UNL1        0.0615
      5 C           0.5260    6.5089   11.9120 C.2     1  UNL1       -0.0654
      6 H           1.0406    6.4930   10.9608 H       1  UNL1        0.0615
      7 C           0.4690    5.4470   12.8365 C.2     1  UNL1       -0.0763
      8 H           0.9331    4.4776   12.7122 H       1  UNL1        0.0578
      9 C          -0.4321    5.8027   13.8602 C.3     1  UNL1        0.0054
     10 H          -0.7657    5.1561   14.6606 H       1  UNL1        0.0394
@<TRIPOS>BOND
     1     6     5    1
     2     4     3    1
     3     5     3    1
     4     5     7    2
     5     3     1    2
     6     8     7    1
     7     7     9    1
     8     1     9    1
     9     1     2    1
    10     9    10    1
