@<TRIPOS>MOLECULE
1,3,5,7,9
 10 10 0 0 0
SMALL
GASTEIGER

@<TRIPOS>ATOM
      1 C          -2.1301   10.1134   13.7254 C.2     1  UNL1       -0.0837
      2 H          -3.0373    9.6502   13.3591 H       1  UNL1        0.0572
      3 C          -1.9550   11.4830   14.0216 C.3     1  UNL1       -0.0127
      4 H          -2.7136   12.2490   13.9383 H       1  UNL1        0.0352
      5 C          -0.6937   11.6372   14.6305 C.3     1  UNL1       -0.0235
      6 H          -0.3237   12.5380   15.0951 H       1  UNL1        0.0315
      7 C          -0.0937   10.3582   14.7125 C.3     1  UNL1       -0.0127
      8 H           0.8363   10.1192   15.2140 H       1  UNL1        0.0352
      9 C          -0.9920    9.4225   14.1671 C.2     1  UNL1       -0.0837
     10 H          -0.8513    8.3503   14.1449 H       1  UNL1        0.0572
@<TRIPOS>BOND
     1     2     1    1
     2     1     3    1
     3     1     9    2
     4     4     3    1
     5     3     5    1
     6    10     9    1
     7     9     7    1
     8     5     7    1
     9     5     6    1
    10     7     8    1
