@<TRIPOS>MOLECULE
1,3,5,7,9
 10 10 0 0 0
SMALL
GASTEIGER

@<TRIPOS>ATOM
      1 C          -1.6720   12.4726   11.1606 C.3     1  UNL1       -0.0127
      2 H          -2.1902   13.3391   11.5431 H       1  UNL1        0.0352
      3 C          -0.3861   12.4777   10.5804 C.3     1  UNL1       -0.0235
      4 H           0.2367   13.3483   10.4388 H       1  UNL1        0.0315
      5 C          -0.1514   11.1941   10.0422 C.3     1  UNL1       -0.0127
      6 H           0.7119   10.8930    9.4614 H       1  UNL1        0.0352
      7 C          -1.2902   10.4023   10.2915 C.2     1  UNL1       -0.0837
      8 H          -1.4399    9.3877    9.9453 H       1  UNL1        0.0572
      9 C          -2.2320   11.1946   10.9676 C.2     1  UNL1       -0.0837
     10 H          -3.2539   10.9141   11.1861 H       1  UNL1        0.0572
@<TRIPOS>BOND
     1     6     5    1
     2     8     7    1
     3     5     7    1
     4     5     3    1
     5     7     9    2
     6     4     3    1
     7     3     1    1
     8     9     1    1
     9     9    10    1
    10     1     2    1
