@<TRIPOS>MOLECULE
1,3,5,7,9
 10 10 0 0 0
SMALL
GASTEIGER

@<TRIPOS>ATOM
      1 C          12.3232    5.2703    8.3254 C.3     1  UNL1       -0.0235
      2 H          12.5830    4.3327    8.8024 H       1  UNL1        0.0315
      3 C          11.4984    6.2715    8.8795 C.3     1  UNL1       -0.0127
      4 H          10.9842    6.2120    9.8295 H       1  UNL1        0.0352
      5 C          11.6044    7.4230    8.0712 C.2     1  UNL1       -0.0837
      6 H          11.1913    8.3964    8.3013 H       1  UNL1        0.0572
      7 C          12.4926    7.1357    7.0144 C.2     1  UNL1       -0.0837
      8 H          12.8591    7.8485    6.2873 H       1  UNL1        0.0572
      9 C          12.9471    5.8107    7.1723 C.3     1  UNL1       -0.0127
     10 H          13.7414    5.3422    6.6055 H       1  UNL1        0.0352
@<TRIPOS>BOND
     1     8     7    1
     2    10     9    1
     3     7     9    1
     4     7     5    2
     5     9     1    1
     6     5     6    1
     7     5     3    1
     8     1     2    1
     9     1     3    1
    10     3     4    1
