@<TRIPOS>MOLECULE
1,3,5,7,9
 10 10 0 0 0
SMALL
GASTEIGER

@<TRIPOS>ATOM
      1 C           8.7860    1.2545    5.5473 C.2     1  UNL1       -0.0654
      2 H           8.8430    0.8859    4.5309 H       1  UNL1        0.0615
      3 C           7.6191    1.3081    6.3462 C.2     1  UNL1       -0.0763
      4 H           6.6314    0.9930    6.0387 H       1  UNL1        0.0578
      5 C           7.9349    1.9837    7.5344 C.3     1  UNL1        0.0054
      6 H           7.2412    2.2637    8.3192 H       1  UNL1        0.0394
      7 C           9.2886    2.4061    7.4460 C.2     1  UNL1       -0.0763
      8 H           9.7968    3.0374    8.1634 H       1  UNL1        0.0578
      9 C           9.7989    1.9771    6.2112 C.2     1  UNL1       -0.0654
     10 H          10.7817    2.1958    5.8155 H       1  UNL1        0.0615
@<TRIPOS>BOND
     1     2     1    1
     2     1     9    1
     3     1     3    2
     4    10     9    1
     5     4     3    1
     6     9     7    2
     7     3     5    1
     8     7     5    1
     9     7     8    1
    10     5     6    1
