@<TRIPOS>MOLECULE
1,3,5,7,9
 10 10 0 0 0
SMALL
GASTEIGER

@<TRIPOS>ATOM
      1 C           9.2136   -2.1913    6.6822 C.3     1  UNL1        0.0054
      2 H           9.9549   -2.5784    5.9940 H       1  UNL1        0.0394
      3 C           9.2596   -2.2935    8.0887 C.2     1  UNL1       -0.0763
      4 H          10.0396   -2.7699    8.6669 H       1  UNL1        0.0578
      5 C           8.0449   -1.7846    8.6025 C.2     1  UNL1       -0.0654
      6 H           7.7381   -1.8136    9.6405 H       1  UNL1        0.0615
      7 C           7.2590   -1.3545    7.5212 C.2     1  UNL1       -0.0654
      8 H           6.2298   -1.0255    7.5874 H       1  UNL1        0.0615
      9 C           7.9801   -1.6058    6.3317 C.2     1  UNL1       -0.0763
     10 H           7.5959   -1.5076    5.3251 H       1  UNL1        0.0578
@<TRIPOS>BOND
     1    10     9    1
     2     2     1    1
     3     9     1    1
     4     9     7    2
     5     1     3    1
     6     7     8    1
     7     7     5    1
     8     3     5    2
     9     3     4    1
    10     5     6    1
