@<TRIPOS>MOLECULE
1,2,3,4,5
 22 22 0 0 0
SMALL
GASTEIGER

@<TRIPOS>ATOM
      1 C          10.0950   22.3432   10.9680 C.2     1  UNL1        0.0000
      2 C           8.8305   22.3947   11.5846 C.2     1  UNL1        0.0000
      3 C           8.0315   23.2996   10.8502 C.3     1  UNL1        0.0000
      4 C           8.8292   23.8327    9.8077 C.3     1  UNL1        0.0000
      5 C          10.1166   23.2478    9.8704 C.3     1  UNL1        0.0000
      6 SI         11.5613   23.5428    8.6736 Si      1  UNL1        0.0000
      7 C          13.1523   23.4297    9.7271 C.3     1  UNL1        0.0000
      8 C          11.3575   25.2757    7.9135 C.3     1  UNL1        0.0000
      9 C          11.5972   22.1722    7.3418 C.3     1  UNL1        0.0000
     10 H          10.9529   21.7952   11.3417 H       1  UNL1        0.0000
     11 H           8.5634   21.9264   12.5220 H       1  UNL1        0.0000
     12 H           7.0505   23.6571   11.1365 H       1  UNL1        0.0000
     13 H           8.5396   24.6482    9.1585 H       1  UNL1        0.0000
     14 H          13.3117   22.4333   10.1278 H       1  UNL1        0.0000
     15 H          14.0146   23.6765    9.1181 H       1  UNL1        0.0000
     16 H          13.1321   24.1242   10.5608 H       1  UNL1        0.0000
     17 H          11.2374   26.0413    8.6750 H       1  UNL1        0.0000
     18 H          12.2306   25.5339    7.3233 H       1  UNL1        0.0000
     19 H          10.4939   25.3123    7.2574 H       1  UNL1        0.0000
     20 H          11.9450   21.2225    7.7478 H       1  UNL1        0.0000
     21 H          10.6077   22.0139    6.9084 H       1  UNL1        0.0000
     22 H          12.2640   22.4410    6.5271 H       1  UNL1        0.0000
@<TRIPOS>BOND
     1    22     9    1
     2    21     9    1
     3    19     8    1
     4    18     8    1
     5     9    20    1
     6     9     6    1
     7     8     6    1
     8     8    17    1
     9     6     7    1
    10     6     5    1
    11    15     7    1
    12    13     4    1
    13     7    14    1
    14     7    16    1
    15     4     5    1
    16     4     3    1
    17     5     1    1
    18     3    12    1
    19     3     2    1
    20     1    10    1
    21     1     2    2
    22     2    11    1
