@<TRIPOS>MOLECULE
1,2,3,4,5
 34 34 0 0 0
SMALL
GASTEIGER

@<TRIPOS>ATOM
      1 C           3.1169    3.6751    2.9468 C.3     1  UNL1        0.0085
      2 C           3.6715    4.1223    4.1817 C.2     1  UNL1       -0.0655
      3 C           3.7487    5.5400    4.1450 C.2     1  UNL1       -0.0658
      4 C           3.2345    5.9751    2.8928 C.3     1  UNL1        0.0053
      5 C           2.8454    4.8250    2.1500 C.3     1  UNL1       -0.0050
      6 C           3.0228    2.2399    2.5128 C.3     1  UNL1       -0.0400
      7 C           4.2401    3.2538    5.2649 C.3     1  UNL1       -0.0429
      8 C           4.4291    6.4069    5.1614 C.3     1  UNL1       -0.0430
      9 C           3.2830    7.3800    2.3702 C.3     1  UNL1       -0.0545
     10 C           2.4004    4.8427    0.7158 C.3     1  UNL1       -0.0574
     11 C           4.3909    1.6502    2.1252 C.3     1  UNL1       -0.0459
     12 C           4.2494    0.1695    1.7768 C.3     1  UNL1       -0.0626
     13 C           5.0053    2.4161    0.9579 C.3     1  UNL1       -0.0626
     14 H           2.3474    2.1527    1.6588 H       1  UNL1        0.0277
     15 H           2.6046    1.6346    3.3216 H       1  UNL1        0.0277
     16 H           4.0150    3.6634    6.2485 H       1  UNL1        0.0275
     17 H           5.3289    3.1818    5.1721 H       1  UNL1        0.0275
     18 H           3.8249    2.2495    5.2156 H       1  UNL1        0.0275
     19 H           5.4909    6.5250    4.9190 H       1  UNL1        0.0275
     20 H           3.9781    7.3969    5.1932 H       1  UNL1        0.0275
     21 H           4.3555    5.9696    6.1551 H       1  UNL1        0.0275
     22 H           4.2672    7.5972    1.9413 H       1  UNL1        0.0239
     23 H           3.0964    8.0983    3.1664 H       1  UNL1        0.0239
     24 H           2.5357    7.5325    1.5942 H       1  UNL1        0.0239
     25 H           1.6919    5.6505    0.5380 H       1  UNL1        0.0236
     26 H           3.2538    4.9913    0.0466 H       1  UNL1        0.0236
     27 H           1.9156    3.9073    0.4466 H       1  UNL1        0.0236
     28 H           5.0617    1.7425    2.9857 H       1  UNL1        0.0296
     29 H           3.5791    0.0436    0.9280 H       1  UNL1        0.0232
     30 H           5.2157   -0.2619    1.5171 H       1  UNL1        0.0232
     31 H           3.8409   -0.3862    2.6186 H       1  UNL1        0.0232
     32 H           5.9909    2.0215    0.7116 H       1  UNL1        0.0232
     33 H           4.3715    2.3363    0.0767 H       1  UNL1        0.0232
     34 H           5.1053    3.4666    1.2168 H       1  UNL1        0.0232
@<TRIPOS>BOND
     1    26    10    1
     2    33    13    1
     3    27    10    1
     4    25    10    1
     5    32    13    1
     6    10     5    1
     7    29    12    1
     8    13    34    1
     9    13    11    1
    10    30    12    1
    11    24     9    1
    12    14     6    1
    13    12    11    1
    14    12    31    1
    15    22     9    1
    16    11     6    1
    17    11    28    1
    18     5     4    1
    19     5     1    1
    20     9     4    1
    21     9    23    1
    22     6     1    1
    23     6    15    1
    24     4     3    1
    25     1     2    1
    26     3     2    2
    27     3     8    1
    28     2     7    1
    29    19     8    1
    30     8    20    1
    31     8    21    1
    32    17     7    1
    33    18     7    1
    34     7    16    1
