@<TRIPOS>MOLECULE
1,3,5,7,9
 10 10 0 0 0
SMALL
GASTEIGER

@<TRIPOS>ATOM
      1 C           6.0104   11.1253    2.5597 C.2     1  UNL1       -0.0654
      2 H           5.3679   11.5233    3.3298 H       1  UNL1        0.0615
      3 C           7.1820   11.7297    2.0751 C.2     1  UNL1       -0.0763
      4 H           7.5900   12.6735    2.3936 H       1  UNL1        0.0578
      5 C           7.6661   10.9318    1.0078 C.3     1  UNL1        0.0054
      6 H           8.4872   11.1858    0.3570 H       1  UNL1        0.0394
      7 C           6.7585    9.8645    0.8115 C.2     1  UNL1       -0.0763
      8 H           6.7816    9.1603   -0.0009 H       1  UNL1        0.0578
      9 C           5.7508    9.9662    1.7879 C.2     1  UNL1       -0.0654
     10 H           4.8638    9.3558    1.8369 H       1  UNL1        0.0615
@<TRIPOS>BOND
     1     8     7    1
     2     6     5    1
     3     7     5    1
     4     7     9    2
     5     5     3    1
     6     9    10    1
     7     9     1    1
     8     3     4    1
     9     3     1    2
    10     1     2    1
