@<TRIPOS>MOLECULE
1,3,5,7,9
 10 10 0 0 0
SMALL
GASTEIGER

@<TRIPOS>ATOM
      1 C           1.2587    1.4639    6.4744 C.2     1  UNL1       -0.0837
      2 H           0.3946    0.8590    6.6841 H       1  UNL1        0.0572
      3 C           2.0549    1.3686    5.3137 C.3     1  UNL1       -0.0127
      4 H           1.8969    0.6799    4.5037 H       1  UNL1        0.0352
      5 C           3.0196    2.3967    5.3712 C.3     1  UNL1       -0.0235
      6 H           3.7449    2.6298    4.6125 H       1  UNL1        0.0315
      7 C           2.7825    3.1549    6.5398 C.3     1  UNL1       -0.0127
      8 H           3.2958    4.0568    6.8221 H       1  UNL1        0.0352
      9 C           1.6703    2.5978    7.2047 C.2     1  UNL1       -0.0837
     10 H           1.1804    3.0141    8.0655 H       1  UNL1        0.0572
@<TRIPOS>BOND
     1     4     3    1
     2     6     5    1
     3     3     5    1
     4     3     1    1
     5     5     7    1
     6     1     2    1
     7     1     9    2
     8     7     8    1
     9     7     9    1
    10     9    10    1
