@<TRIPOS>MOLECULE
1,3,5,7,9
 10 10 0 0 0
SMALL
GASTEIGER

@<TRIPOS>ATOM
      1 C           4.8184    0.5142    2.3815 C.2     1  UNL1       -0.0654
      2 H           5.5798    0.5523    3.1402 H       1  UNL1        0.0615
      3 C           4.2209    1.6409    1.7825 C.2     1  UNL1       -0.0763
      4 H           4.4572    2.6643    2.0075 H       1  UNL1        0.0578
      5 C           3.3510    1.1771    0.7730 C.3     1  UNL1        0.0054
      6 H           2.7821    1.7904    0.0971 H       1  UNL1        0.0394
      7 C           3.4678   -0.2285    0.7051 C.2     1  UNL1       -0.0763
      8 H           3.0162   -0.8567   -0.0402 H       1  UNL1        0.0578
      9 C           4.3895   -0.6383    1.6914 C.2     1  UNL1       -0.0654
     10 H           4.7700   -1.6322    1.8328 H       1  UNL1        0.0615
@<TRIPOS>BOND
     1     8     7    1
     2     6     5    1
     3     7     5    1
     4     7     9    2
     5     5     3    1
     6     9    10    1
     7     9     1    1
     8     3     4    1
     9     3     1    2
    10     1     2    1
