@<TRIPOS>MOLECULE
1,3,5,7,9
 10 10 0 0 0
SMALL
GASTEIGER

@<TRIPOS>ATOM
      1 C           0.1058   -0.7575   18.9106 C.2     1  UNL1       -0.0654
      2 H          -0.6821   -0.0472   19.0899 H       1  UNL1        0.0615
      3 C           0.6011   -1.7212   19.8185 C.2     1  UNL1       -0.0654
      4 H           0.3021   -1.8364   20.8478 H       1  UNL1        0.0615
      5 C           1.7399   -2.3353   19.2323 C.2     1  UNL1       -0.0763
      6 H           2.4080   -3.0225   19.7258 H       1  UNL1        0.0578
      7 C           1.9111   -1.7922   17.9453 C.3     1  UNL1        0.0054
      8 H           2.7370   -1.9846   17.2802 H       1  UNL1        0.0394
      9 C           0.8810   -0.8343   17.7359 C.2     1  UNL1       -0.0763
     10 H           0.8085   -0.1640   16.8953 H       1  UNL1        0.0578
@<TRIPOS>BOND
     1    10     9    1
     2     8     7    1
     3     9     7    1
     4     9     1    2
     5     7     5    1
     6     1     2    1
     7     1     3    1
     8     5     6    1
     9     5     3    2
    10     3     4    1
