@<TRIPOS>MOLECULE
2,3,4,5,6
 22 22 0 0 0
SMALL
GASTEIGER

@<TRIPOS>ATOM
      1 SI          8.1002   13.7483   11.5821 Si      1  UNL1        0.0000
      2 C           7.3364   13.0935   13.1694 C.2     1  UNL1        0.0000
      3 C           7.8748   13.1911   14.4722 C.3     1  UNL1        0.0000
      4 C           6.9413   12.6800   15.4002 C.2     1  UNL1        0.0000
      5 C           5.8050   12.2679   14.6720 C.2     1  UNL1        0.0000
      6 C           6.0592   12.4984   13.3062 C.2     1  UNL1        0.0000
      7 C          10.0026   13.5699   11.6724 C.3     1  UNL1        0.0000
      8 C           7.6666   15.6017   11.3929 C.3     1  UNL1        0.0000
      9 C           7.3830   12.7865   10.0945 C.3     1  UNL1        0.0000
     10 H           8.7924   13.7085   14.7171 H       1  UNL1        0.0000
     11 H           7.0032   12.7587   16.4799 H       1  UNL1        0.0000
     12 H           4.8536   11.9763   15.0976 H       1  UNL1        0.0000
     13 H           5.3448   12.3755   12.5026 H       1  UNL1        0.0000
     14 H          10.4292   14.3013   12.3526 H       1  UNL1        0.0000
     15 H          10.2977   12.5841   12.0211 H       1  UNL1        0.0000
     16 H          10.4584   13.7303   10.7004 H       1  UNL1        0.0000
     17 H           8.0552   16.1886   12.2194 H       1  UNL1        0.0000
     18 H           8.0875   16.0040   10.4769 H       1  UNL1        0.0000
     19 H           6.5927   15.7575   11.3580 H       1  UNL1        0.0000
     20 H           7.3687   11.7157   10.2786 H       1  UNL1        0.0000
     21 H           6.3636   13.0978    9.8870 H       1  UNL1        0.0000
     22 H           7.9633   12.9633    9.1945 H       1  UNL1        0.0000
@<TRIPOS>BOND
     1    22     9    1
     2    21     9    1
     3     9    20    1
     4     9     1    1
     5    18     8    1
     6    16     7    1
     7    19     8    1
     8     8     1    1
     9     8    17    1
    10     1     7    1
    11     1     2    1
    12     7    15    1
    13     7    14    1
    14    13     6    1
    15     2     6    2
    16     2     3    1
    17     6     5    1
    18     3    10    1
    19     3     4    1
    20     5    12    1
    21     5     4    2
    22     4    11    1
