@<TRIPOS>MOLECULE
2,3,4,5,6
 22 22 0 0 0
SMALL
GASTEIGER

@<TRIPOS>ATOM
      1 SI          6.1784    4.4917    4.7253 Si      1  UNL1        0.0000
      2 C           4.4624    2.1109    4.3001 C.2     1  UNL1        0.0000
      3 C           4.4756    0.9256    3.5269 C.2     1  UNL1        0.0000
      4 C           5.4727    1.0521    2.5511 C.2     1  UNL1        0.0000
      5 C           6.1070    2.2961    2.7388 C.3     1  UNL1        0.0000
      6 C           5.5064    2.9683    3.8348 C.2     1  UNL1        0.0000
      7 C           7.9119    4.0446    5.3978 C.3     1  UNL1        0.0000
      8 C           6.3238    5.9430    3.4904 C.3     1  UNL1        0.0000
      9 C           4.9956    4.9468    6.1468 C.3     1  UNL1        0.0000
     10 H           3.9057    2.2515    5.2191 H       1  UNL1        0.0000
     11 H           3.8782    0.0422    3.7159 H       1  UNL1        0.0000
     12 H           5.7737    0.2818    1.8543 H       1  UNL1        0.0000
     13 H           7.0238    2.6055    2.2520 H       1  UNL1        0.0000
     14 H           8.6069    3.8084    4.5978 H       1  UNL1        0.0000
     15 H           8.3295    4.8732    5.9600 H       1  UNL1        0.0000
     16 H           7.8709    3.1852    6.0600 H       1  UNL1        0.0000
     17 H           6.8607    6.7771    3.9313 H       1  UNL1        0.0000
     18 H           5.3403    6.3009    3.1998 H       1  UNL1        0.0000
     19 H           6.8561    5.6555    2.5877 H       1  UNL1        0.0000
     20 H           3.9758    5.0568    5.7898 H       1  UNL1        0.0000
     21 H           5.2885    5.8849    6.6068 H       1  UNL1        0.0000
     22 H           4.9963    4.1890    6.9242 H       1  UNL1        0.0000
@<TRIPOS>BOND
     1    12     4    1
     2    13     5    1
     3     4     5    1
     4     4     3    2
     5    19     8    1
     6     5     6    1
     7    18     8    1
     8     8    17    1
     9     8     1    1
    10     3    11    1
    11     3     2    1
    12     6     2    2
    13     6     1    1
    14     2    10    1
    15    14     7    1
    16     1     7    1
    17     1     9    1
    18     7    15    1
    19     7    16    1
    20    20     9    1
    21     9    21    1
    22     9    22    1
