@<TRIPOS>MOLECULE
2,3,4,5,6
 22 22 0 0 0
SMALL
GASTEIGER

@<TRIPOS>ATOM
      1 SI          0.9062    8.0141    0.5841 Si      1  UNL1        0.0000
      2 C          -0.3760    6.9062   -0.2506 C.3     1  UNL1        0.0000
      3 C          -0.1552    6.0201   -1.3461 C.3     1  UNL1        0.0000
      4 C          -1.3609    5.3780   -1.6592 C.2     1  UNL1        0.0000
      5 C          -2.3416    5.8349   -0.7643 C.2     1  UNL1        0.0000
      6 C          -1.7442    6.7719    0.1000 C.3     1  UNL1        0.0000
      7 C           2.5497    7.0335    0.5631 C.3     1  UNL1        0.0000
      8 C           0.3444    8.2675    2.3905 C.3     1  UNL1        0.0000
      9 C           1.0779    9.6691   -0.3516 C.3     1  UNL1        0.0000
     10 H           0.7514    5.9825   -1.9390 H       1  UNL1        0.0000
     11 H          -1.5277    4.7102   -2.4934 H       1  UNL1        0.0000
     12 H          -3.3943    5.5862   -0.7989 H       1  UNL1        0.0000
     13 H          -2.2639    7.3780    0.8331 H       1  UNL1        0.0000
     14 H           3.3355    7.5501    1.1055 H       1  UNL1        0.0000
     15 H           2.9120    6.8644   -0.4480 H       1  UNL1        0.0000
     16 H           2.3929    6.0631    1.0398 H       1  UNL1        0.0000
     17 H           1.1069    8.7623    2.9835 H       1  UNL1        0.0000
     18 H           0.1446    7.2936    2.8411 H       1  UNL1        0.0000
     19 H          -0.5595    8.8662    2.4581 H       1  UNL1        0.0000
     20 H           1.8220   10.2958    0.1266 H       1  UNL1        0.0000
     21 H           0.1423   10.2181   -0.3642 H       1  UNL1        0.0000
     22 H           1.3852    9.5179   -1.3811 H       1  UNL1        0.0000
@<TRIPOS>BOND
     1    11     4    1
     2    10     3    1
     3     4     3    1
     4     4     5    2
     5    22     9    1
     6     3     2    1
     7    12     5    1
     8     5     6    1
     9    15     7    1
    10    21     9    1
    11     9    20    1
    12     9     1    1
    13     2     6    1
    14     2     1    1
    15     6    13    1
    16     7     1    1
    17     7    16    1
    18     7    14    1
    19     1     8    1
    20     8    19    1
    21     8    18    1
    22     8    17    1
