@<TRIPOS>MOLECULE
2,3,4,5,6
 22 22 0 0 0
SMALL
GASTEIGER

@<TRIPOS>ATOM
      1 SI          1.4606    5.1763   -0.1091 Si      1  UNL1        0.0000
      2 C           4.3646    4.8146    0.5121 C.2     1  UNL1        0.0000
      3 C           5.3618    3.8612    0.2517 C.3     1  UNL1        0.0000
      4 C           4.7413    2.7071   -0.2758 C.2     1  UNL1        0.0000
      5 C           3.3642    2.9501   -0.3466 C.2     1  UNL1        0.0000
      6 C           3.0929    4.2582    0.1519 C.2     1  UNL1        0.0000
      7 C           0.0999    4.2631    0.8699 C.3     1  UNL1        0.0000
      8 C           1.0735    5.1223   -1.9822 C.3     1  UNL1        0.0000
      9 C           1.6371    6.9878    0.4600 C.3     1  UNL1        0.0000
     10 H           4.5335    5.8511    0.7719 H       1  UNL1        0.0000
     11 H           6.4291    4.0370    0.2989 H       1  UNL1        0.0000
     12 H           5.2512    1.8354   -0.6635 H       1  UNL1        0.0000
     13 H           2.6360    2.3213   -0.8405 H       1  UNL1        0.0000
     14 H           0.2760    4.3420    1.9389 H       1  UNL1        0.0000
     15 H          -0.8833    4.6730    0.6636 H       1  UNL1        0.0000
     16 H           0.0776    3.2058    0.6163 H       1  UNL1        0.0000
     17 H           1.8661    5.5770   -2.5688 H       1  UNL1        0.0000
     18 H           0.1557    5.6585   -2.1994 H       1  UNL1        0.0000
     19 H           0.9482    4.1034   -2.3353 H       1  UNL1        0.0000
     20 H           2.4174    7.5081   -0.0874 H       1  UNL1        0.0000
     21 H           1.8716    7.0476    1.5179 H       1  UNL1        0.0000
     22 H           0.7107    7.5291    0.2986 H       1  UNL1        0.0000
@<TRIPOS>BOND
     1    17     8    1
     2    19     8    1
     3    18     8    1
     4     8     1    1
     5    13     5    1
     6    12     4    1
     7     5     4    2
     8     5     6    1
     9     4     3    1
    10     1     6    1
    11     1     9    1
    12     1     7    1
    13    20     9    1
    14     6     2    2
    15     3    11    1
    16     3     2    1
    17    22     9    1
    18     9    21    1
    19     2    10    1
    20    16     7    1
    21    15     7    1
    22     7    14    1
