@<TRIPOS>MOLECULE
1,2,3,4,5
 10 10 0 0 0
SMALL
GASTEIGER

@<TRIPOS>ATOM
      1 C          -1.8763    9.2764    6.2181 C.3     1  UNL1        0.0054
      2 C          -2.7324    8.6511    5.2855 C.2     1  UNL1       -0.0763
      3 C          -2.1562    7.4149    4.9256 C.2     1  UNL1       -0.0654
      4 C          -0.9461    7.2772    5.6288 C.2     1  UNL1       -0.0654
      5 C          -0.7668    8.4273    6.4220 C.2     1  UNL1       -0.0763
      6 H          -2.0994   10.1767    6.7778 H       1  UNL1        0.0394
      7 H          -3.7321    8.9708    5.0338 H       1  UNL1        0.0578
      8 H          -2.6428    6.6374    4.3516 H       1  UNL1        0.0615
      9 H          -0.3416    6.3802    5.6705 H       1  UNL1        0.0615
     10 H          -0.0096    8.5514    7.1820 H       1  UNL1        0.0578
@<TRIPOS>BOND
     1     8     3    1
     2     3     2    2
     3     3     4    1
     4     7     2    1
     5     2     1    1
     6     4     9    1
     7     4     5    2
     8     1     5    1
     9     1     6    1
    10     5    10    1
