@<TRIPOS>MOLECULE
1,2,3,4,5
 10 10 0 0 0
SMALL
GASTEIGER

@<TRIPOS>ATOM
      1 C           0.5559    9.2768    1.8261 C.3     1  UNL1        0.0054
      2 C           1.4116    8.6512    2.7589 C.2     1  UNL1       -0.0763
      3 C           0.8350    7.4152    3.1187 C.2     1  UNL1       -0.0654
      4 C          -0.3750    7.2779    2.4151 C.2     1  UNL1       -0.0654
      5 C          -0.5538    8.4281    1.6218 C.2     1  UNL1       -0.0763
      6 H           0.7795   10.1770    1.2665 H       1  UNL1        0.0394
      7 H           2.4113    8.9708    3.0110 H       1  UNL1        0.0578
      8 H           1.3211    6.6376    3.6928 H       1  UNL1        0.0615
      9 H          -0.9797    6.3810    2.3732 H       1  UNL1        0.0615
     10 H          -1.3108    8.5525    0.8618 H       1  UNL1        0.0578
@<TRIPOS>BOND
     1    10     5    1
     2     6     1    1
     3     5     1    1
     4     5     4    2
     5     1     2    1
     6     9     4    1
     7     4     3    1
     8     2     7    1
     9     2     3    2
    10     3     8    1
