@<TRIPOS>MOLECULE
1,3,5,7,9
 10 10 0 0 0
SMALL
GASTEIGER

@<TRIPOS>ATOM
      1 C           7.0638    2.0490    9.4389 C.2     1  UNL1       -0.0654
      2 H           6.7891    1.3023   10.1659 H       1  UNL1        0.0615
      3 C           6.5435    3.3691    9.3700 C.2     1  UNL1       -0.0654
      4 H           5.8300    3.8010   10.0523 H       1  UNL1        0.0615
      5 C           7.2845    4.0820    8.4025 C.2     1  UNL1       -0.0763
      6 H           7.2018    5.1360    8.2002 H       1  UNL1        0.0578
      7 C           8.2043    3.1859    7.8148 C.3     1  UNL1        0.0054
      8 H           8.9823    3.4504    7.1170 H       1  UNL1        0.0394
      9 C           8.0899    1.9357    8.4828 C.2     1  UNL1       -0.0763
     10 H           8.7425    1.0888    8.3471 H       1  UNL1        0.0578
@<TRIPOS>BOND
     1     8     7    1
     2     7     5    1
     3     7     9    1
     4     6     5    1
     5    10     9    1
     6     5     3    2
     7     9     1    2
     8     3     1    1
     9     3     4    1
    10     1     2    1
