@<TRIPOS>MOLECULE
1,3,5,7,9
 10 10 0 0 0
SMALL
GASTEIGER

@<TRIPOS>ATOM
      1 C           4.9572    7.9581   11.0549 C.3     1  UNL1       -0.0127
      2 H           4.0387    8.2001   10.5476 H       1  UNL1        0.0352
      3 C           6.2527    7.9580   10.4715 C.2     1  UNL1       -0.0837
      4 H           6.4867    8.2406    9.4580 H       1  UNL1        0.0572
      5 C           7.1493    7.4009   11.4032 C.2     1  UNL1       -0.0837
      6 H           8.1905    7.1826   11.2306 H       1  UNL1        0.0572
      7 C           6.4123    7.0579   12.5677 C.3     1  UNL1       -0.0127
      8 H           6.7963    6.4991   13.4054 H       1  UNL1        0.0352
      9 C           5.0497    7.3540   12.3284 C.3     1  UNL1       -0.0235
     10 H           4.2184    7.0876   12.9571 H       1  UNL1        0.0315
@<TRIPOS>BOND
     1     4     3    1
     2     3     1    1
     3     3     5    2
     4     2     1    1
     5     1     9    1
     6     6     5    1
     7     5     7    1
     8     9     7    1
     9     9    10    1
    10     7     8    1
