@<TRIPOS>MOLECULE
1,2,3,4,5
 25 25 0 0 0
SMALL
GASTEIGER

@<TRIPOS>ATOM
      1 C          10.6936    9.8515    1.7941 C.2     1  UNL1       -0.0584
      2 C           9.6852    8.9854    1.2788 C.2     1  UNL1       -0.0477
      3 C           8.4734    9.7317    1.1979 C.2     1  UNL1       -0.0477
      4 C           8.7255   11.0401    1.6952 C.2     1  UNL1       -0.0584
      5 C          10.0931   11.1099    2.0865 C.3     1  UNL1        0.0231
      6 C          12.1733    9.6091    1.6873 C.3     1  UNL1       -0.0424
      7 H          12.5240    9.9594    0.7128 H       1  UNL1        0.0275
      8 H          12.4160    8.5514    1.7627 H       1  UNL1        0.0275
      9 H          12.7311   10.1486    2.4497 H       1  UNL1        0.0275
     10 C           9.9477    7.6599    0.6141 C.3     1  UNL1       -0.0395
     11 H           9.0779    7.0073    0.6641 H       1  UNL1        0.0278
     12 H          10.7950    7.1494    1.0697 H       1  UNL1        0.0278
     13 H          10.1878    7.8163   -0.4410 H       1  UNL1        0.0278
     14 C           7.2232    9.3685    0.4453 C.3     1  UNL1       -0.0395
     15 H           7.1207   10.0299   -0.4183 H       1  UNL1        0.0278
     16 H           6.3335    9.4962    1.0631 H       1  UNL1        0.0278
     17 H           7.2596    8.3467    0.0780 H       1  UNL1        0.0278
     18 C           7.7608   12.1806    1.5247 C.3     1  UNL1       -0.0424
     19 H           7.4730   12.2515    0.4737 H       1  UNL1        0.0275
     20 H           8.2128   13.1265    1.8094 H       1  UNL1        0.0275
     21 H           6.8494   12.0302    2.1046 H       1  UNL1        0.0275
     22 C          10.8516   12.3605    2.4484 C.3     1  UNL1       -0.0510
     23 H          11.7180   12.1313    3.0678 H       1  UNL1        0.0242
     24 H          10.2240   13.0730    2.9809 H       1  UNL1        0.0242
     25 H          11.2165   12.8482    1.5406 H       1  UNL1        0.0242
@<TRIPOS>BOND
     1    13    10    1
     2    15    14    1
     3    17    14    1
     4    14    16    1
     5    14     3    1
     6    19    18    1
     7    10    11    1
     8    10    12    1
     9    10     2    1
    10     7     6    1
    11     3     2    1
    12     3     4    2
    13     2     1    2
    14    18     4    1
    15    18    20    1
    16    18    21    1
    17    25    22    1
    18     6     8    1
    19     6     1    1
    20     6     9    1
    21     4     5    1
    22     1     5    1
    23     5    22    1
    24    22    24    1
    25    22    23    1
