@<TRIPOS>MOLECULE
1,3,5,7,9
 10 10 0 0 0
SMALL
GASTEIGER

@<TRIPOS>ATOM
      1 C          15.0411    5.0884    4.9073 C.2     1  UNL1       -0.0837
      2 H          15.8926    5.1802    4.2462 H       1  UNL1        0.0572
      3 C          14.7364    3.9638    5.7083 C.2     1  UNL1       -0.0837
      4 H          15.3043    3.0437    5.7468 H       1  UNL1        0.0572
      5 C          13.4614    4.1814    6.3098 C.3     1  UNL1       -0.0127
      6 H          12.8886    3.4423    6.8547 H       1  UNL1        0.0352
      7 C          12.9892    5.4493    5.8739 C.3     1  UNL1       -0.0235
      8 H          12.0101    5.8686    6.0610 H       1  UNL1        0.0315
      9 C          13.9760    6.0143    5.0159 C.3     1  UNL1       -0.0127
     10 H          13.8660    6.9258    4.4460 H       1  UNL1        0.0352
@<TRIPOS>BOND
     1     2     1    1
     2    10     9    1
     3     1     9    1
     4     1     3    2
     5     9     7    1
     6     3     4    1
     7     3     5    1
     8     7     8    1
     9     7     5    1
    10     5     6    1
