@<TRIPOS>MOLECULE
1,2,3,4,5
 25 25 0 0 0
SMALL
GASTEIGER

@<TRIPOS>ATOM
      1 C           0.1943    1.2839   12.2209 C.2     1  UNL1       -0.0584
      2 C          -1.1426    1.6170   11.8604 C.2     1  UNL1       -0.0477
      3 C          -1.1865    1.8154   10.4606 C.2     1  UNL1       -0.0477
      4 C           0.1177    1.5823    9.9328 C.2     1  UNL1       -0.0584
      5 C           0.9825    1.2734   11.0291 C.3     1  UNL1        0.0231
      6 C           0.6603    0.7866   13.5555 C.3     1  UNL1       -0.0424
      7 C          -2.3437    1.4541   12.7449 C.3     1  UNL1       -0.0395
      8 C          -2.4337    1.9545    9.6384 C.3     1  UNL1       -0.0395
      9 C           0.4237    1.3533    8.4825 C.3     1  UNL1       -0.0424
     10 C           2.3782    0.7294   10.9412 C.3     1  UNL1       -0.0510
     11 H           1.6788    1.1145   13.7574 H       1  UNL1        0.0275
     12 H           0.0210    1.1443   14.3597 H       1  UNL1        0.0275
     13 H           0.6465   -0.3060   13.5703 H       1  UNL1        0.0275
     14 H          -2.1348    1.7271   13.7781 H       1  UNL1        0.0278
     15 H          -2.6512    0.4053   12.7383 H       1  UNL1        0.0278
     16 H          -3.1875    2.0458   12.3932 H       1  UNL1        0.0278
     17 H          -2.8793    0.9691    9.4763 H       1  UNL1        0.0278
     18 H          -3.1757    2.5812   10.1324 H       1  UNL1        0.0278
     19 H          -2.2172    2.3875    8.6636 H       1  UNL1        0.0278
     20 H           0.0909    2.1793    7.8568 H       1  UNL1        0.0275
     21 H           1.4912    1.2229    8.3288 H       1  UNL1        0.0275
     22 H          -0.0844    0.4455    8.1476 H       1  UNL1        0.0275
     23 H           2.9797    1.0735   11.7813 H       1  UNL1        0.0242
     24 H           2.8679    1.0484   10.0236 H       1  UNL1        0.0242
     25 H           2.3560   -0.3626   10.9600 H       1  UNL1        0.0242
@<TRIPOS>BOND
     1    20     9    1
     2    22     9    1
     3    21     9    1
     4     9     4    1
     5    19     8    1
     6    17     8    1
     7     8    18    1
     8     8     3    1
     9     4     3    2
    10     4     5    1
    11    24    10    1
    12     3     2    1
    13    10    25    1
    14    10     5    1
    15    10    23    1
    16     5     1    1
    17     2     1    2
    18     2     7    1
    19     1     6    1
    20    16     7    1
    21    15     7    1
    22     7    14    1
    23     6    13    1
    24     6    11    1
    25     6    12    1
