@<TRIPOS>MOLECULE
1,2,3,4,5
 25 25 0 0 0
SMALL
GASTEIGER

@<TRIPOS>ATOM
      1 C           2.8240   11.3257    1.7330 C.3     1  UNL1       -0.0053
      2 C           4.2104   11.1807    2.0472 C.3     1  UNL1        0.0052
      3 C           4.5774    9.8354    1.7930 C.2     1  UNL1       -0.0658
      4 C           3.4466    9.1565    1.2764 C.2     1  UNL1       -0.0658
      5 C           2.3665   10.0705    1.2308 C.3     1  UNL1        0.0052
      6 C           2.0513   12.6198    1.6926 C.3     1  UNL1       -0.0574
      7 C           5.1916   12.3024    2.2529 C.3     1  UNL1       -0.0545
      8 C           5.9785    9.2949    1.8379 C.3     1  UNL1       -0.0430
      9 C           3.4345    7.7792    0.6784 C.3     1  UNL1       -0.0430
     10 C           1.0319    9.7829    0.6041 C.3     1  UNL1       -0.0545
     11 H           2.4752   13.3577    2.3739 H       1  UNL1        0.0236
     12 H           1.0085   12.4626    1.9698 H       1  UNL1        0.0236
     13 H           2.0707   13.0450    0.6857 H       1  UNL1        0.0236
     14 H           5.7222   12.4964    1.3173 H       1  UNL1        0.0239
     15 H           5.9405   12.0636    3.0067 H       1  UNL1        0.0239
     16 H           4.6926   13.2241    2.5435 H       1  UNL1        0.0239
     17 H           6.5509    9.7356    2.6530 H       1  UNL1        0.0275
     18 H           6.5048    9.5238    0.9085 H       1  UNL1        0.0275
     19 H           5.9777    8.2123    1.9570 H       1  UNL1        0.0275
     20 H           3.6896    7.8286   -0.3828 H       1  UNL1        0.0275
     21 H           2.4497    7.3255    0.7680 H       1  UNL1        0.0275
     22 H           4.1547    7.1264    1.1677 H       1  UNL1        0.0275
     23 H           0.5958    8.8666    1.0060 H       1  UNL1        0.0239
     24 H           1.1441    9.6575   -0.4754 H       1  UNL1        0.0239
     25 H           0.3318   10.5951    0.7812 H       1  UNL1        0.0239
@<TRIPOS>BOND
     1    24    10    1
     2    20     9    1
     3    10    25    1
     4    10    23    1
     5    10     5    1
     6     9    21    1
     7     9    22    1
     8     9     4    1
     9    13     6    1
    10    18     8    1
    11     5     4    1
    12     5     1    1
    13     4     3    2
    14    14     7    1
    15     6     1    1
    16     6    12    1
    17     6    11    1
    18     1     2    1
    19     3     8    1
    20     3     2    1
    21     8    19    1
    22     8    17    1
    23     2     7    1
    24     7    16    1
    25     7    15    1
