@<TRIPOS>MOLECULE
1,2,3,4,5
 25 25 0 0 0
SMALL
GASTEIGER

@<TRIPOS>ATOM
      1 C           2.8300    6.4398    8.0351 C.2     1  UNL1       -0.0584
      2 C           1.4693    6.8621    7.9880 C.2     1  UNL1       -0.0477
      3 C           1.4412    8.2734    8.1605 C.2     1  UNL1       -0.0477
      4 C           2.7762    8.7312    8.2907 C.2     1  UNL1       -0.0584
      5 C           3.6362    7.6049    8.1924 C.3     1  UNL1        0.0231
      6 C           3.3486    5.0331    8.1420 C.3     1  UNL1       -0.0424
      7 C           0.2368    6.0025    8.0006 C.3     1  UNL1       -0.0395
      8 C           0.1705    9.0607    8.3069 C.3     1  UNL1       -0.0395
      9 C           3.2358   10.1093    8.6794 C.3     1  UNL1       -0.0424
     10 C           5.1178    7.6093    8.4504 C.3     1  UNL1       -0.0510
     11 H           3.8020    4.8810    9.1233 H       1  UNL1        0.0275
     12 H           2.5437    4.3095    8.0331 H       1  UNL1        0.0275
     13 H           4.1112    4.8282    7.3900 H       1  UNL1        0.0275
     14 H          -0.2840    6.1119    8.9543 H       1  UNL1        0.0278
     15 H          -0.4580    6.2930    7.2107 H       1  UNL1        0.0278
     16 H           0.4894    4.9508    7.8840 H       1  UNL1        0.0278
     17 H          -0.4252    8.6573    9.1273 H       1  UNL1        0.0278
     18 H           0.3764   10.1041    8.5306 H       1  UNL1        0.0278
     19 H          -0.4359    9.0124    7.3999 H       1  UNL1        0.0278
     20 H           3.5645   10.1118    9.7208 H       1  UNL1        0.0275
     21 H           4.0765   10.4398    8.0687 H       1  UNL1        0.0275
     22 H           2.4361   10.8388    8.5809 H       1  UNL1        0.0275
     23 H           5.3177    7.5043    9.5197 H       1  UNL1        0.0242
     24 H           5.6073    6.7846    7.9353 H       1  UNL1        0.0242
     25 H           5.5735    8.5417    8.1177 H       1  UNL1        0.0242
@<TRIPOS>BOND
     1    15     7    1
     2    13     6    1
     3    19     8    1
     4    16     7    1
     5    24    10    1
     6     2     7    1
     7     2     1    2
     8     2     3    1
     9     7    14    1
    10    12     6    1
    11     1     6    1
    12     1     5    1
    13    21     9    1
    14    25    10    1
    15     6    11    1
    16     3     4    2
    17     3     8    1
    18     5     4    1
    19     5    10    1
    20     4     9    1
    21     8    18    1
    22     8    17    1
    23    10    23    1
    24    22     9    1
    25     9    20    1
