@<TRIPOS>MOLECULE
6,7,8,9,11
 97 102 0 0 0
SMALL
GASTEIGER

@<TRIPOS>ATOM
      1 SI          3.2326    0.0076    5.3045 Si      1  UNL1        0.0000
      2 SI         -0.9930    3.1421    7.6873 Si      1  UNL1        0.0000
      3 SI         -3.9106   -0.3252    1.6194 Si      1  UNL1        0.0000
      4 C          -1.9047   -1.6228    5.1965 C.3     1  UNL1        0.0000
      5 C          -0.8822   -0.6144    5.7759 C.3     1  UNL1        0.0000
      6 C           0.3292   -0.4061    4.8444 C.3     1  UNL1        0.0000
      7 C           1.3805    0.4038    5.4731 C.2     1  UNL1        0.0000
      8 C           0.9556    1.4183    6.3723 C.2     1  UNL1        0.0000
      9 C          -0.3978    1.7508    6.5546 C.3     1  UNL1        0.0000
     10 C          -1.4823    0.7544    6.1218 C.3     1  UNL1        0.0000
     11 C          -2.0675    1.4376    4.8898 C.3     1  UNL1        0.0000
     12 C          -3.2585    0.7867    4.1919 C.3     1  UNL1        0.0000
     13 C          -3.1744   -1.7434    6.0772 C.3     1  UNL1        0.0000
     14 C          -4.4450   -1.1273    5.4941 C.3     1  UNL1        0.0000
     15 C          -4.3647    0.3683    5.2016 C.3     1  UNL1        0.0000
     16 C          -2.2803   -1.4398    3.7347 C.3     1  UNL1        0.0000
     17 C          -2.9418   -0.3675    3.2658 C.3     1  UNL1        0.0000
     18 C           0.7973   -1.6346    4.1469 C.ar    1  UNL1        0.0000
     19 C           1.0155   -2.8120    4.8640 C.ar    1  UNL1        0.0000
     20 C           1.4390   -3.9648    4.2314 C.ar    1  UNL1        0.0000
     21 C           1.6746   -3.9648    2.8669 C.ar    1  UNL1        0.0000
     22 C           1.4889   -2.7992    2.1468 C.ar    1  UNL1        0.0000
     23 C           1.0483   -1.6506    2.7803 C.ar    1  UNL1        0.0000
     24 C           3.8497   -0.9265    3.7500 C.3     1  UNL1        0.0000
     25 C           4.3841    1.5454    5.3205 C.3     1  UNL1        0.0000
     26 C           3.7275   -1.1257    6.7780 C.3     1  UNL1        0.0000
     27 C           1.9526    2.2338    7.1030 C.ar    1  UNL1        0.0000
     28 C           2.5671    1.7012    8.2321 C.ar    1  UNL1        0.0000
     29 C           3.4784    2.4484    8.9550 C.ar    1  UNL1        0.0000
     30 C           3.7816    3.7427    8.5655 C.ar    1  UNL1        0.0000
     31 C           3.1591    4.2888    7.4554 C.ar    1  UNL1        0.0000
     32 C           2.2479    3.5405    6.7322 C.ar    1  UNL1        0.0000
     33 C          -0.0264    3.3654    9.3237 C.3     1  UNL1        0.0000
     34 C          -2.7936    2.8058    8.2601 C.3     1  UNL1        0.0000
     35 C          -1.0576    4.8431    6.7987 C.3     1  UNL1        0.0000
     36 C          -2.0260   -2.6108    2.8788 C.ar    1  UNL1        0.0000
     37 C          -1.5073   -2.4589    1.5965 C.ar    1  UNL1        0.0000
     38 C          -1.2813   -3.5512    0.7812 C.ar    1  UNL1        0.0000
     39 C          -1.5646   -4.8276    1.2332 C.ar    1  UNL1        0.0000
     40 C          -2.0816   -4.9969    2.5060 C.ar    1  UNL1        0.0000
     41 C          -2.3077   -3.9032    3.3195 C.ar    1  UNL1        0.0000
     42 C          -5.5250    0.6826    1.8640 C.3     1  UNL1        0.0000
     43 C          -3.0151    0.5567    0.1742 C.3     1  UNL1        0.0000
     44 C          -4.5395   -2.0375    1.0467 C.3     1  UNL1        0.0000
     45 H          -1.3927   -2.5887    5.2531 H       1  UNL1        0.0000
     46 H          -0.5273   -1.0589    6.7279 H       1  UNL1        0.0000
     47 H          -2.2013    0.6282    6.9443 H       1  UNL1        0.0000
     48 H          -2.4131    2.4375    5.2081 H       1  UNL1        0.0000
     49 H          -3.6918    1.5828    3.5764 H       1  UNL1        0.0000
     50 H          -3.3830   -2.8046    6.2418 H       1  UNL1        0.0000
     51 H          -2.9783   -1.3095    7.0593 H       1  UNL1        0.0000
     52 H          -4.7099   -1.6566    4.5762 H       1  UNL1        0.0000
     53 H          -5.2573   -1.2918    6.2088 H       1  UNL1        0.0000
     54 H          -5.3341    0.6717    4.8009 H       1  UNL1        0.0000
     55 H          -4.2218    0.9125    6.1364 H       1  UNL1        0.0000
     56 H           0.8628   -2.8215    5.9341 H       1  UNL1        0.0000
     57 H           1.5940   -4.8672    4.8057 H       1  UNL1        0.0000
     58 H           2.0062   -4.8654    2.3718 H       1  UNL1        0.0000
     59 H           1.6856   -2.7863    1.0846 H       1  UNL1        0.0000
     60 H           0.8948   -0.7465    2.2084 H       1  UNL1        0.0000
     61 H           3.5518   -1.9676    3.7555 H       1  UNL1        0.0000
     62 H           3.5095   -0.4912    2.8175 H       1  UNL1        0.0000
     63 H           4.9359   -0.9010    3.7420 H       1  UNL1        0.0000
     64 H           4.0042    2.3565    4.7079 H       1  UNL1        0.0000
     65 H           4.5426    1.9358    6.3185 H       1  UNL1        0.0000
     66 H           5.3571    1.2714    4.9239 H       1  UNL1        0.0000
     67 H           4.4191   -1.8930    6.4448 H       1  UNL1        0.0000
     68 H           4.2197   -0.5620    7.5638 H       1  UNL1        0.0000
     69 H           2.8720   -1.6299    7.2170 H       1  UNL1        0.0000
     70 H           2.3166    0.6986    8.5437 H       1  UNL1        0.0000
     71 H           3.9520    2.0238    9.8283 H       1  UNL1        0.0000
     72 H           4.4953    4.3258    9.1285 H       1  UNL1        0.0000
     73 H           3.3866    5.3015    7.1542 H       1  UNL1        0.0000
     74 H           1.7586    3.9674    5.8671 H       1  UNL1        0.0000
     75 H           0.8975    3.9128    9.1809 H       1  UNL1        0.0000
     76 H          -0.6315    3.9240   10.0307 H       1  UNL1        0.0000
     77 H           0.2232    2.4155    9.7848 H       1  UNL1        0.0000
     78 H          -2.8776    1.8863    8.8316 H       1  UNL1        0.0000
     79 H          -3.1267    3.6132    8.9049 H       1  UNL1        0.0000
     80 H          -3.4915    2.7502    7.4312 H       1  UNL1        0.0000
     81 H          -1.6092    5.5565    7.4035 H       1  UNL1        0.0000
     82 H          -0.0671    5.2570    6.6397 H       1  UNL1        0.0000
     83 H          -1.5571    4.7792    5.8348 H       1  UNL1        0.0000
     84 H          -1.2676   -1.4678    1.2492 H       1  UNL1        0.0000
     85 H          -0.8790   -3.4077   -0.2117 H       1  UNL1        0.0000
     86 H          -1.3867   -5.6841    0.5996 H       1  UNL1        0.0000
     87 H          -2.3145   -5.9890    2.8660 H       1  UNL1        0.0000
     88 H          -2.7382   -4.0591    4.2978 H       1  UNL1        0.0000
     89 H          -6.1469    0.2650    2.6492 H       1  UNL1        0.0000
     90 H          -5.3428    1.7248    2.1046 H       1  UNL1        0.0000
     91 H          -6.1103    0.6663    0.9491 H       1  UNL1        0.0000
     92 H          -2.6335    1.5302    0.4665 H       1  UNL1        0.0000
     93 H          -2.1881   -0.0216   -0.2246 H       1  UNL1        0.0000
     94 H          -3.7140    0.7155   -0.6418 H       1  UNL1        0.0000
     95 H          -5.4936   -1.9361    0.5379 H       1  UNL1        0.0000
     96 H          -3.8527   -2.5194    0.3612 H       1  UNL1        0.0000
     97 H          -4.6843   -2.7138    1.8829 H       1  UNL1        0.0000
@<TRIPOS>BOND
     1    94    43    1
     2    93    43    1
     3    85    38    1
     4    43    92    1
     5    43     3    1
     6    96    44    1
     7    95    44    1
     8    86    39    1
     9    38    39   ar
    10    38    37   ar
    11    91    42    1
    12    44     3    1
    13    44    97    1
    14    59    22    1
    15    39    40   ar
    16    84    37    1
    17    37    36   ar
    18     3    42    1
    19     3    17    1
    20    42    90    1
    21    42    89    1
    22    22    23   ar
    23    22    21   ar
    24    60    23    1
    25    58    21    1
    26    40    87    1
    27    40    41   ar
    28    23    18   ar
    29    62    24    1
    30    21    20   ar
    31    36    41   ar
    32    36    16    1
    33    17    16    1
    34    17    12    1
    35    41    88    1
    36    49    12    1
    37    16     4    1
    38    63    24    1
    39    24    61    1
    40    24     1    1
    41    18     6    1
    42    18    19   ar
    43    12    11    1
    44    12    15    1
    45    20    57    1
    46    20    19   ar
    47    52    14    1
    48    64    25    1
    49    54    15    1
    50     6     7    1
    51     6     5    1
    52    19    56    1
    53    11    48    1
    54    11    10    1
    55    66    25    1
    56     4    45    1
    57     4     5    1
    58     4    13    1
    59    15    14    1
    60    15    55    1
    61     1    25    1
    62     1     7    1
    63     1    26    1
    64    25    65    1
    65     7     8    2
    66    14    13    1
    67    14    53    1
    68     5    10    1
    69     5    46    1
    70    83    35    1
    71    74    32    1
    72    13    50    1
    73    13    51    1
    74    10     9    1
    75    10    47    1
    76     8     9    1
    77     8    27    1
    78    67    26    1
    79     9     2    1
    80    82    35    1
    81    32    27   ar
    82    32    31   ar
    83    26    69    1
    84    26    68    1
    85    35    81    1
    86    35     2    1
    87    27    28   ar
    88    73    31    1
    89    80    34    1
    90    31    30   ar
    91     2    34    1
    92     2    33    1
    93    28    70    1
    94    28    29   ar
    95    34    78    1
    96    34    79    1
    97    30    29   ar
    98    30    72    1
    99    29    71    1
   100    75    33    1
   101    33    77    1
   102    33    76    1
