@<TRIPOS>MOLECULE
1,2,3,4,5
 10 10 0 0 0
SMALL
GASTEIGER

@<TRIPOS>ATOM
      1 C           0.0732    3.6321    3.3748 C.2     1  UNL1       -0.0763
      2 C           1.3658    3.0842    3.2791 C.3     1  UNL1        0.0054
      3 C           1.2963    1.9274    2.4824 C.2     1  UNL1       -0.0763
      4 C          -0.0437    1.7529    2.0756 C.2     1  UNL1       -0.0654
      5 C          -0.8060    2.8129    2.6255 C.2     1  UNL1       -0.0654
      6 H          -0.1807    4.5869    3.8195 H       1  UNL1        0.0578
      7 H           2.2796    3.5394    3.6379 H       1  UNL1        0.0394
      8 H           2.1485    1.3493    2.1498 H       1  UNL1        0.0578
      9 H          -0.4066    1.0326    1.3538 H       1  UNL1        0.0615
     10 H          -1.8349    3.0480    2.3810 H       1  UNL1        0.0615
@<TRIPOS>BOND
     1     9     4    1
     2     4     3    2
     3     4     5    1
     4     8     3    1
     5    10     5    1
     6     3     2    1
     7     5     1    2
     8     2     1    1
     9     2     7    1
    10     1     6    1
