@<TRIPOS>MOLECULE
1,2,3,4,5
 10 10 0 0 0
SMALL
GASTEIGER

@<TRIPOS>ATOM
      1 C           0.4923   -0.8857    2.4846 C.2     1  UNL1       -0.0763
      2 C          -0.4421   -0.6571    3.5221 C.3     1  UNL1        0.0054
      3 C           0.1283   -1.0959    4.7238 C.2     1  UNL1       -0.0763
      4 C           1.4079   -1.6060    4.4400 C.2     1  UNL1       -0.0654
      5 C           1.6395   -1.4763    3.0596 C.2     1  UNL1       -0.0654
      6 H           0.2839   -0.8139    1.4216 H       1  UNL1        0.0578
      7 H          -1.4754   -0.3605    3.3923 H       1  UNL1        0.0394
      8 H          -0.3633   -1.1130    5.6894 H       1  UNL1        0.0578
      9 H           2.0602   -2.1066    5.1423 H       1  UNL1        0.0615
     10 H           2.4784   -1.8957    2.5218 H       1  UNL1        0.0615
@<TRIPOS>BOND
     1     6     1    1
     2     1     5    2
     3     1     2    1
     4    10     5    1
     5     5     4    1
     6     7     2    1
     7     2     3    1
     8     4     3    2
     9     4     9    1
    10     3     8    1
