@<TRIPOS>MOLECULE
1,2,3,4,5
 10 10 0 0 0
SMALL
GASTEIGER

@<TRIPOS>ATOM
      1 C          10.1593   10.5366    1.7105 C.3     1  UNL1       -0.0127
      2 C           9.6714    9.4543    0.9456 C.3     1  UNL1       -0.0235
      3 C           8.6816    9.9543    0.0694 C.3     1  UNL1       -0.0127
      4 C           8.6175   11.3636    0.2380 C.2     1  UNL1       -0.0837
      5 C           9.5294   11.7231    1.2479 C.2     1  UNL1       -0.0837
      6 H          10.9864   10.4922    2.3988 H       1  UNL1        0.0352
      7 H          10.0465    8.4464    0.9761 H       1  UNL1        0.0315
      8 H           8.1971    9.3976   -0.7156 H       1  UNL1        0.0352
      9 H           8.0427   12.0432   -0.3692 H       1  UNL1        0.0572
     10 H           9.7781   12.7269    1.5506 H       1  UNL1        0.0572
@<TRIPOS>BOND
     1     8     3    1
     2     9     4    1
     3     3     4    1
     4     3     2    1
     5     4     5    2
     6     2     7    1
     7     2     1    1
     8     5    10    1
     9     5     1    1
    10     1     6    1
