@<TRIPOS>MOLECULE
2,4,6,8,10
 22 22 0 0 0
SMALL
GASTEIGER

@<TRIPOS>ATOM
      1 SI         -7.7164   12.6361   -1.3787 Si      1  UNL1        0.0000
      2 C          -4.7872   12.2301   -1.6784 C.2     1  UNL1        0.0000
      3 H          -4.5222   12.7703   -0.7801 H       1  UNL1        0.0000
      4 C          -3.8943   11.8228   -2.6755 C.2     1  UNL1        0.0000
      5 H          -2.8250   11.9812   -2.6679 H       1  UNL1        0.0000
      6 C          -4.6443   11.3025   -3.7542 C.3     1  UNL1        0.0000
      7 H          -4.2542   11.0208   -4.7234 H       1  UNL1        0.0000
      8 C          -6.0069   11.3932   -3.4179 C.3     1  UNL1        0.0000
      9 H          -6.8329   11.2528   -4.1011 H       1  UNL1        0.0000
     10 C          -6.1199   11.9681   -2.1116 C.3     1  UNL1        0.0000
     11 C          -7.3453   14.0076   -0.1017 C.3     1  UNL1        0.0000
     12 H          -6.7519   13.6374    0.7280 H       1  UNL1        0.0000
     13 H          -8.2657   14.4095    0.3095 H       1  UNL1        0.0000
     14 H          -6.7999   14.8284   -0.5553 H       1  UNL1        0.0000
     15 C          -8.7975   13.3637   -2.7764 C.3     1  UNL1        0.0000
     16 H          -9.1319   12.5879   -3.4576 H       1  UNL1        0.0000
     17 H          -8.2507   14.0984   -3.3582 H       1  UNL1        0.0000
     18 H          -9.6810   13.8499   -2.3747 H       1  UNL1        0.0000
     19 C          -8.7283   11.2460   -0.5238 C.3     1  UNL1        0.0000
     20 H          -8.4630   11.1410    0.5236 H       1  UNL1        0.0000
     21 H          -8.5671   10.2824   -1.0071 H       1  UNL1        0.0000
     22 H          -9.7927   11.4581   -0.5654 H       1  UNL1        0.0000
@<TRIPOS>BOND
     1     7     6    1
     2     9     8    1
     3     6     8    1
     4     6     4    1
     5    16    15    1
     6     8    10    1
     7    17    15    1
     8    15    18    1
     9    15     1    1
    10     4     5    1
    11     4     2    2
    12    10     2    1
    13    10     1    1
    14     2     3    1
    15     1    19    1
    16     1    11    1
    17    21    19    1
    18    22    19    1
    19    14    11    1
    20    19    20    1
    21    11    13    1
    22    11    12    1
