@<TRIPOS>MOLECULE
1,3,5,7,9
 10 10 0 0 0
SMALL
GASTEIGER

@<TRIPOS>ATOM
      1 C          -3.9824    8.5732    0.4914 C.2     1  UNL1       -0.0763
      2 H          -3.0476    8.0313    0.4637 H       1  UNL1        0.0578
      3 C          -5.2647    7.9918    0.5934 C.2     1  UNL1       -0.0654
      4 H          -5.4766    6.9331    0.6343 H       1  UNL1        0.0615
      5 C          -6.1958    9.0256    0.8296 C.2     1  UNL1       -0.0654
      6 H          -7.2367    8.8862    1.0879 H       1  UNL1        0.0615
      7 C          -5.4892   10.2461    0.8808 C.2     1  UNL1       -0.0763
      8 H          -5.8988   11.2008    1.1804 H       1  UNL1        0.0578
      9 C          -4.1208    9.9669    0.6694 C.3     1  UNL1        0.0054
     10 H          -3.3101   10.6741    0.7913 H       1  UNL1        0.0394
@<TRIPOS>BOND
     1     2     1    1
     2     1     3    2
     3     1     9    1
     4     3     4    1
     5     3     5    1
     6     9    10    1
     7     9     7    1
     8     5     7    2
     9     5     6    1
    10     7     8    1
