@<TRIPOS>MOLECULE
1,6,7,8,9
 16 17 0 0 0
SMALL
GASTEIGER

@<TRIPOS>ATOM
      1 C           1.2101    2.8208    0.8723 C.ar    1  UNL1       -0.0399
      2 C           0.6506    2.3365   -0.3210 C.ar    1  UNL1       -0.0580
      3 C           1.1712    1.1951   -0.8769 C.ar    1  UNL1       -0.0615
      4 C           2.2359    0.5067   -0.2737 C.ar    1  UNL1       -0.0615
      5 C           2.8004    0.9453    0.8974 C.ar    1  UNL1       -0.0580
      6 C           2.2994    2.1157    1.4901 C.ar    1  UNL1       -0.0399
      7 C           2.6905    2.8652    2.6559 C.3     1  UNL1       -0.0048
      8 C           1.9488    4.0667    2.6635 C.3     1  UNL1       -0.0223
      9 C           0.9547    3.9955    1.6650 C.3     1  UNL1       -0.0048
     10 H          -0.1608    2.8691   -0.7962 H       1  UNL1        0.0620
     11 H           0.7647    0.8159   -1.8028 H       1  UNL1        0.0618
     12 H           2.6185   -0.3823   -0.7530 H       1  UNL1        0.0618
     13 H           3.6272    0.4175    1.3508 H       1  UNL1        0.0620
     14 H           3.5818    2.6778    3.2326 H       1  UNL1        0.0358
     15 H           2.1210    4.9080    3.3142 H       1  UNL1        0.0316
     16 H           0.3132    4.8068    1.3618 H       1  UNL1        0.0358
@<TRIPOS>BOND
     1    11     3    1
     2     3     2   ar
     3     3     4   ar
     4    10     2    1
     5    12     4    1
     6     2     1   ar
     7     4     5   ar
     8     1     6   ar
     9     1     9    1
    10     5    13    1
    11     5     6   ar
    12    16     9    1
    13     6     7    1
    14     9     8    1
    15     7     8    1
    16     7    14    1
    17     8    15    1
