@<TRIPOS>MOLECULE
1,6,7,8,9
 16 17 0 0 0
SMALL
GASTEIGER

@<TRIPOS>ATOM
      1 C          -0.3246    2.0253    4.0519 C.ar    1  UNL1       -0.0399
      2 C          -0.8708    3.1005    4.7724 C.ar    1  UNL1       -0.0580
      3 C          -1.3202    4.1961    4.0803 C.ar    1  UNL1       -0.0615
      4 C          -1.2533    4.2555    2.6786 C.ar    1  UNL1       -0.0615
      5 C          -0.7359    3.2205    1.9420 C.ar    1  UNL1       -0.0580
      6 C          -0.2564    2.0858    2.6173 C.ar    1  UNL1       -0.0399
      7 C           0.3931    0.8818    2.1668 C.3     1  UNL1       -0.0048
      8 C           0.8271    0.1745    3.3086 C.3     1  UNL1       -0.0223
      9 C           0.2827    0.7851    4.4595 C.3     1  UNL1       -0.0048
     10 H          -0.9122    3.0655    5.8516 H       1  UNL1        0.0620
     11 H          -1.7275    5.0397    4.6176 H       1  UNL1        0.0618
     12 H          -1.6113    5.1432    2.1784 H       1  UNL1        0.0618
     13 H          -0.6746    3.2776    0.8647 H       1  UNL1        0.0620
     14 H           0.7324    0.7088    1.1580 H       1  UNL1        0.0358
     15 H           1.4866   -0.6775    3.3044 H       1  UNL1        0.0316
     16 H           0.5254    0.5268    5.4777 H       1  UNL1        0.0358
@<TRIPOS>BOND
     1    13     5    1
     2    14     7    1
     3     5     6   ar
     4     5     4   ar
     5     7     6    1
     6     7     8    1
     7    12     4    1
     8     6     1   ar
     9     4     3   ar
    10    15     8    1
    11     8     9    1
    12     1     9    1
    13     1     2   ar
    14     3    11    1
    15     3     2   ar
    16     9    16    1
    17     2    10    1
