@<TRIPOS>MOLECULE
1,6,7,8,9
 16 17 0 0 0
SMALL
GASTEIGER

@<TRIPOS>ATOM
      1 C          -3.2317    2.6890   11.5662 C.ar    1  UNL1       -0.0399
      2 C          -2.8944    1.5965   12.3778 C.ar    1  UNL1       -0.0580
      3 C          -3.8958    0.9413   13.0511 C.ar    1  UNL1       -0.0615
      4 C          -5.2366    1.3406   12.9370 C.ar    1  UNL1       -0.0615
      5 C          -5.6014    2.4040   12.1485 C.ar    1  UNL1       -0.0580
      6 C          -4.6021    3.1021   11.4537 C.ar    1  UNL1       -0.0399
      7 C          -4.6308    4.2716   10.6239 C.3     1  UNL1       -0.0048
      8 C          -3.2918    4.6402   10.3529 C.3     1  UNL1       -0.0223
      9 C          -2.4395    3.6194   10.8047 C.3     1  UNL1       -0.0048
     10 H          -1.8602    1.3014   12.4890 H       1  UNL1        0.0620
     11 H          -3.6534    0.1076   13.6939 H       1  UNL1        0.0618
     12 H          -5.9895    0.8020   13.4938 H       1  UNL1        0.0618
     13 H          -6.6327    2.7181   12.0749 H       1  UNL1        0.0620
     14 H          -5.4963    4.8947   10.4699 H       1  UNL1        0.0358
     15 H          -2.9781    5.5629    9.8958 H       1  UNL1        0.0316
     16 H          -1.3628    3.6647   10.8333 H       1  UNL1        0.0358
@<TRIPOS>BOND
     1    15     8    1
     2     8     7    1
     3     8     9    1
     4    14     7    1
     5     7     6    1
     6     9    16    1
     7     9     1    1
     8     6     1   ar
     9     6     5   ar
    10     1     2   ar
    11    13     5    1
    12     5     4   ar
    13     2    10    1
    14     2     3   ar
    15     4     3   ar
    16     4    12    1
    17     3    11    1
