@<TRIPOS>MOLECULE
1,2,3,4,5
 25 25 0 0 0
SMALL
GASTEIGER

@<TRIPOS>ATOM
      1 C          -0.4529    0.7364    4.3434 C.2     1  UNL1       -0.0584
      2 C          -0.7210    1.2720    3.0331 C.2     1  UNL1       -0.0477
      3 C          -0.0451    2.5129    2.9218 C.2     1  UNL1       -0.0477
      4 C           0.6004    2.7787    4.1697 C.2     1  UNL1       -0.0584
      5 C           0.3382    1.7017    5.0475 C.3     1  UNL1        0.0231
      6 C          -1.2079   -0.3933    4.9863 C.3     1  UNL1       -0.0424
      7 H          -2.1496   -0.0258    5.4034 H       1  UNL1        0.0275
      8 H          -0.6289   -0.8401    5.7932 H       1  UNL1        0.0275
      9 H          -1.4369   -1.1737    4.2619 H       1  UNL1        0.0275
     10 C          -1.7133    0.7080    2.0607 C.3     1  UNL1       -0.0395
     11 H          -1.7136   -0.3804    2.0908 H       1  UNL1        0.0278
     12 H          -1.4893    1.0180    1.0417 H       1  UNL1        0.0278
     13 H          -2.7188    1.0563    2.3104 H       1  UNL1        0.0278
     14 C          -0.1927    3.5138    1.8114 C.3     1  UNL1       -0.0395
     15 H          -0.9744    4.2366    2.0611 H       1  UNL1        0.0278
     16 H          -0.4701    3.0276    0.8774 H       1  UNL1        0.0278
     17 H           0.7345    4.0644    1.6475 H       1  UNL1        0.0278
     18 C           1.2424    4.0867    4.5240 C.3     1  UNL1       -0.0424
     19 H           0.4691    4.8356    4.7179 H       1  UNL1        0.0275
     20 H           1.8700    4.4526    3.7104 H       1  UNL1        0.0275
     21 H           1.8655    3.9997    5.4120 H       1  UNL1        0.0275
     22 C           0.6538    1.6525    6.5125 C.3     1  UNL1       -0.0510
     23 H           1.5138    2.2753    6.7500 H       1  UNL1        0.0242
     24 H           0.8709    0.6347    6.8330 H       1  UNL1        0.0242
     25 H          -0.2018    2.0151    7.0884 H       1  UNL1        0.0242
@<TRIPOS>BOND
     1    16    14    1
     2    12    10    1
     3    17    14    1
     4    14    15    1
     5    14     3    1
     6    10    11    1
     7    10    13    1
     8    10     2    1
     9     3     2    1
    10     3     4    2
    11     2     1    2
    12    20    18    1
    13     4    18    1
    14     4     5    1
    15     9     6    1
    16     1     6    1
    17     1     5    1
    18    18    19    1
    19    18    21    1
    20     6     7    1
    21     6     8    1
    22     5    22    1
    23    22    23    1
    24    22    24    1
    25    22    25    1
