@<TRIPOS>MOLECULE
1,2,3,4,5
 25 25 0 0 0
SMALL
GASTEIGER

@<TRIPOS>ATOM
      1 C           2.7330    1.9439    3.3597 C.2     1  UNL1       -0.0477
      2 C           2.6883    2.5084    2.0390 C.2     1  UNL1       -0.0477
      3 C           1.3988    2.2869    1.5083 C.2     1  UNL1       -0.0584
      4 C           0.6188    1.6126    2.4970 C.3     1  UNL1        0.0231
      5 C           1.4692    1.3615    3.6267 C.2     1  UNL1       -0.0584
      6 C           3.9940    1.6488    4.1203 C.3     1  UNL1       -0.0395
      7 H           3.8033    1.5344    5.1852 H       1  UNL1        0.0278
      8 H           4.7424    2.4312    3.9987 H       1  UNL1        0.0278
      9 H           4.4273    0.7159    3.7491 H       1  UNL1        0.0278
     10 C           3.8682    2.9644    1.2349 C.3     1  UNL1       -0.0395
     11 H           4.2172    2.1415    0.6051 H       1  UNL1        0.0278
     12 H           4.6966    3.2725    1.8698 H       1  UNL1        0.0278
     13 H           3.6048    3.7954    0.5816 H       1  UNL1        0.0278
     14 C           0.9722    2.5606    0.0996 C.3     1  UNL1       -0.0424
     15 H           1.4802    3.4349   -0.3030 H       1  UNL1        0.0275
     16 H          -0.1007    2.7350    0.0421 H       1  UNL1        0.0275
     17 H           1.2141    1.7034   -0.5335 H       1  UNL1        0.0275
     18 C          -0.7169    0.9710    2.2691 C.3     1  UNL1       -0.0510
     19 H          -1.3158    1.5529    1.5701 H       1  UNL1        0.0242
     20 H          -1.2711    0.8873    3.2028 H       1  UNL1        0.0242
     21 H          -0.5847   -0.0320    1.8565 H       1  UNL1        0.0242
     22 C           1.1274    0.4458    4.7608 C.3     1  UNL1       -0.0424
     23 H           1.2158   -0.5931    4.4325 H       1  UNL1        0.0275
     24 H           0.1056    0.6071    5.1007 H       1  UNL1        0.0275
     25 H           1.7986    0.5962    5.6029 H       1  UNL1        0.0275
@<TRIPOS>BOND
     1    17    14    1
     2    15    14    1
     3    16    14    1
     4    14     3    1
     5    13    10    1
     6    11    10    1
     7    10    12    1
     8    10     2    1
     9     3     2    2
    10     3     4    1
    11    19    18    1
    12    21    18    1
    13     2     1    1
    14    18     4    1
    15    18    20    1
    16     4     5    1
    17     1     5    2
    18     1     6    1
    19     5    22    1
    20     9     6    1
    21     8     6    1
    22     6     7    1
    23    23    22    1
    24    22    24    1
    25    22    25    1
