@<TRIPOS>MOLECULE
1,6,7,8,9
 16 17 0 0 0
SMALL
GASTEIGER

@<TRIPOS>ATOM
      1 C           3.0297    1.0956    0.9993 C.ar    1  UNL1       -0.0399
      2 C           2.5495    0.5522   -0.2031 C.ar    1  UNL1       -0.0580
      3 C           1.4807    1.1542   -0.8178 C.ar    1  UNL1       -0.0615
      4 C           0.8607    2.2863   -0.2657 C.ar    1  UNL1       -0.0615
      5 C           1.2971    2.8383    0.9121 C.ar    1  UNL1       -0.0580
      6 C           2.3946    2.2542    1.5645 C.ar    1  UNL1       -0.0399
      7 C           3.1245    2.6060    2.7539 C.3     1  UNL1       -0.0048
      8 C           4.2521    1.7627    2.8336 C.3     1  UNL1       -0.0223
      9 C           4.1385    0.7557    1.8521 C.3     1  UNL1       -0.0048
     10 H           3.0298   -0.3122   -0.6388 H       1  UNL1        0.0620
     11 H           1.1069    0.7596   -1.7510 H       1  UNL1        0.0618
     12 H           0.0275    2.7307   -0.7898 H       1  UNL1        0.0618
     13 H           0.8229    3.7164    1.3266 H       1  UNL1        0.0620
     14 H           2.9918    3.5240    3.3032 H       1  UNL1        0.0358
     15 H           5.0676    1.8720    3.5278 H       1  UNL1        0.0316
     16 H           4.9032    0.0379    1.6025 H       1  UNL1        0.0358
@<TRIPOS>BOND
     1    11     3    1
     2     3     4   ar
     3     3     2   ar
     4    12     4    1
     5    10     2    1
     6     4     5   ar
     7     2     1   ar
     8     5    13    1
     9     5     6   ar
    10     1     6   ar
    11     1     9    1
    12     6     7    1
    13    16     9    1
    14     9     8    1
    15     7     8    1
    16     7    14    1
    17     8    15    1
