@<TRIPOS>MOLECULE
1,6,7,8,9
 16 17 0 0 0
SMALL
GASTEIGER

@<TRIPOS>ATOM
      1 C           0.4754    1.5229    1.5835 C.ar    1  UNL1       -0.0399
      2 C           1.3749    0.4857    1.3047 C.ar    1  UNL1       -0.0580
      3 C           2.0537   -0.0975    2.3472 C.ar    1  UNL1       -0.0615
      4 C           1.8673    0.3296    3.6704 C.ar    1  UNL1       -0.0615
      5 C           0.9970    1.3474    3.9769 C.ar    1  UNL1       -0.0580
      6 C           0.2798    1.9564    2.9371 C.ar    1  UNL1       -0.0399
      7 C          -0.7470    2.9562    2.9230 C.3     1  UNL1       -0.0048
      8 C          -1.2555    3.0362    1.6071 C.3     1  UNL1       -0.0223
      9 C          -0.4335    2.2747    0.7587 C.3     1  UNL1       -0.0048
     10 H           1.5029    0.1351    0.2901 H       1  UNL1        0.0620
     11 H           2.7373   -0.9112    2.1533 H       1  UNL1        0.0618
     12 H           2.4136   -0.1656    4.4598 H       1  UNL1        0.0618
     13 H           0.8449    1.6636    4.9990 H       1  UNL1        0.0620
     14 H          -1.2228    3.3533    3.8031 H       1  UNL1        0.0358
     15 H          -2.1373    3.5757    1.3093 H       1  UNL1        0.0316
     16 H          -0.6359    2.0454   -0.2744 H       1  UNL1        0.0358
@<TRIPOS>BOND
     1    16     9    1
     2    10     2    1
     3     9     1    1
     4     9     8    1
     5     2     1   ar
     6     2     3   ar
     7    15     8    1
     8     1     6   ar
     9     8     7    1
    10    11     3    1
    11     3     4   ar
    12     7     6    1
    13     7    14    1
    14     6     5   ar
    15     4     5   ar
    16     4    12    1
    17     5    13    1
