@<TRIPOS>MOLECULE
1,2,3,4,5
 10 10 0 0 0
SMALL
GASTEIGER

@<TRIPOS>ATOM
      1 C          -3.2376   -0.3952    6.0787 C.3     1  UNL1        0.0054
      2 C          -3.8553   -1.0929    7.1457 C.2     1  UNL1       -0.0763
      3 C          -4.2543   -0.1450    8.1095 C.2     1  UNL1       -0.0654
      4 C          -3.9273    1.1421    7.6136 C.2     1  UNL1       -0.0654
      5 C          -3.3048    0.9930    6.3665 C.2     1  UNL1       -0.0763
      6 H          -2.9220   -0.8217    5.1404 H       1  UNL1        0.0394
      7 H          -4.0646   -2.1510    7.1721 H       1  UNL1        0.0578
      8 H          -4.8383   -0.3430    8.9915 H       1  UNL1        0.0615
      9 H          -4.1644    2.0761    8.0931 H       1  UNL1        0.0615
     10 H          -3.0089    1.7894    5.7059 H       1  UNL1        0.0578
@<TRIPOS>BOND
     1     6     1    1
     2    10     5    1
     3     1     5    1
     4     1     2    1
     5     5     4    2
     6     2     7    1
     7     2     3    2
     8     4     9    1
     9     4     3    1
    10     3     8    1
