@<TRIPOS>MOLECULE
2,3,4,5,6
 22 22 0 0 0
SMALL
GASTEIGER

@<TRIPOS>ATOM
      1 SI          1.0883    4.8154    2.9608 Si      1  UNL1        0.0000
      2 C           1.6203    7.6347    3.6902 C.3     1  UNL1        0.0000
      3 C           1.7944    8.4222    4.8420 C.2     1  UNL1        0.0000
      4 C           1.9325    7.5556    5.9445 C.2     1  UNL1        0.0000
      5 C           1.8356    6.2282    5.4673 C.3     1  UNL1        0.0000
      6 C           1.6331    6.2631    4.0576 C.3     1  UNL1        0.0000
      7 C           1.2271    3.2014    3.9669 C.3     1  UNL1        0.0000
      8 C           2.0651    4.7387    1.3291 C.3     1  UNL1        0.0000
      9 C          -0.7530    5.1755    2.5891 C.3     1  UNL1        0.0000
     10 H           1.3930    8.0133    2.7016 H       1  UNL1        0.0000
     11 H           1.7687    9.5018    4.8861 H       1  UNL1        0.0000
     12 H           1.9902    7.8624    6.9807 H       1  UNL1        0.0000
     13 H           1.7601    5.3394    6.0814 H       1  UNL1        0.0000
     14 H           2.2424    3.0326    4.3119 H       1  UNL1        0.0000
     15 H           0.9440    2.3523    3.3532 H       1  UNL1        0.0000
     16 H           0.5706    3.2102    4.8326 H       1  UNL1        0.0000
     17 H           2.0029    5.6755    0.7820 H       1  UNL1        0.0000
     18 H           1.6799    3.9542    0.6845 H       1  UNL1        0.0000
     19 H           3.1170    4.5354    1.5084 H       1  UNL1        0.0000
     20 H          -0.8779    6.0770    1.9978 H       1  UNL1        0.0000
     21 H          -1.3321    5.2965    3.4994 H       1  UNL1        0.0000
     22 H          -1.1871    4.3541    2.0299 H       1  UNL1        0.0000
@<TRIPOS>BOND
     1    18     8    1
     2    17     8    1
     3     8    19    1
     4     8     1    1
     5    20     9    1
     6    22     9    1
     7     9     1    1
     8     9    21    1
     9    10     2    1
    10     1     7    1
    11     1     6    1
    12    15     7    1
    13     2     6    1
    14     2     3    1
    15     7    14    1
    16     7    16    1
    17     6     5    1
    18     3    11    1
    19     3     4    2
    20     5     4    1
    21     5    13    1
    22     4    12    1
