@<TRIPOS>MOLECULE
1,2,3,4,5
 28 28 0 0 0
SMALL
GASTEIGER

@<TRIPOS>ATOM
      1 C           5.7950   -0.0085   -1.2138 C.2     1  UNL1       -0.0475
      2 C           6.3569    1.2231   -1.6279 C.2     1  UNL1       -0.0584
      3 C           7.6997    0.9680   -2.0753 C.3     1  UNL1        0.0231
      4 C           7.9191   -0.4549   -1.9939 C.2     1  UNL1       -0.0582
      5 C           6.7545   -1.0472   -1.4487 C.2     1  UNL1       -0.0449
      6 C           4.3606   -0.2171   -0.8273 C.3     1  UNL1       -0.0395
      7 H           3.9694    0.6427   -0.2846 H       1  UNL1        0.0278
      8 H           4.2347   -1.1022   -0.2048 H       1  UNL1        0.0278
      9 H           3.7495   -0.3488   -1.7233 H       1  UNL1        0.0278
     10 C           5.6366    2.5329   -1.7452 C.3     1  UNL1       -0.0424
     11 H           5.1796    2.6184   -2.7336 H       1  UNL1        0.0275
     12 H           6.3226    3.3676   -1.6140 H       1  UNL1        0.0275
     13 H           4.8492    2.6196   -0.9990 H       1  UNL1        0.0275
     14 C           8.5605    1.9346   -2.8404 C.3     1  UNL1       -0.0510
     15 H           9.6121    1.6649   -2.7603 H       1  UNL1        0.0242
     16 H           8.4397    2.9471   -2.4592 H       1  UNL1        0.0242
     17 H           8.2839    1.9299   -3.8970 H       1  UNL1        0.0242
     18 C           9.1019   -1.1702   -2.5773 C.3     1  UNL1       -0.0424
     19 H           9.1993   -2.1749   -2.1709 H       1  UNL1        0.0275
     20 H          10.0259   -0.6303   -2.3747 H       1  UNL1        0.0275
     21 H           8.9901   -1.2510   -3.6610 H       1  UNL1        0.0275
     22 C           6.4483   -2.5184   -1.4383 C.3     1  UNL1       -0.0303
     23 H           5.7269   -2.7629   -0.6530 H       1  UNL1        0.0311
     24 H           7.3542   -3.1013   -1.2480 H       1  UNL1        0.0311
     25 C           5.8675   -2.9442   -2.7899 C.3     1  UNL1       -0.0613
     26 H           4.9502   -2.3986   -2.9984 H       1  UNL1        0.0233
     27 H           5.6451   -4.0091   -2.7891 H       1  UNL1        0.0233
     28 H           6.5773   -2.7381   -3.5874 H       1  UNL1        0.0233
@<TRIPOS>BOND
     1    17    14    1
     2    21    18    1
     3    28    25    1
     4    26    25    1
     5    14    15    1
     6    14    16    1
     7    14     3    1
     8    25    27    1
     9    25    22    1
    10    11    10    1
    11    18    20    1
    12    18    19    1
    13    18     4    1
    14     3     4    1
    15     3     2    1
    16     4     5    2
    17    10     2    1
    18    10    12    1
    19    10    13    1
    20     9     6    1
    21     2     1    2
    22     5    22    1
    23     5     1    1
    24    22    24    1
    25    22    23    1
    26     1     6    1
    27     6     7    1
    28     6     8    1
