@<TRIPOS>MOLECULE
1,2,3,4,5
 28 28 0 0 0
SMALL
GASTEIGER

@<TRIPOS>ATOM
      1 C           5.5442   26.4546    9.9264 C.2     1  UNL1       -0.0582
      2 C           6.4195   26.8609   10.9998 C.3     1  UNL1        0.0231
      3 C           5.7843   26.4891   12.2359 C.2     1  UNL1       -0.0584
      4 C           4.5934   25.7933   11.9205 C.2     1  UNL1       -0.0475
      5 C           4.4413   25.7761   10.4936 C.2     1  UNL1       -0.0449
      6 C           5.6997   26.8753    8.4945 C.3     1  UNL1       -0.0424
      7 H           5.3959   27.9188    8.3820 H       1  UNL1        0.0275
      8 H           5.0800   26.2687    7.8369 H       1  UNL1        0.0275
      9 H           6.7364   26.7949    8.1684 H       1  UNL1        0.0275
     10 C           7.5569   27.8351   10.8637 C.3     1  UNL1       -0.0510
     11 H           8.0740   27.6974    9.9156 H       1  UNL1        0.0242
     12 H           8.2799   27.7029   11.6668 H       1  UNL1        0.0242
     13 H           7.1814   28.8600   10.9043 H       1  UNL1        0.0242
     14 C           6.2393   26.9028   13.6032 C.3     1  UNL1       -0.0424
     15 H           5.9220   26.1876   14.3595 H       1  UNL1        0.0275
     16 H           5.8158   27.8770   13.8571 H       1  UNL1        0.0275
     17 H           7.3239   26.9816   13.6442 H       1  UNL1        0.0275
     18 C           3.5514   25.3714   12.9140 C.3     1  UNL1       -0.0395
     19 H           2.9581   24.5340   12.5488 H       1  UNL1        0.0278
     20 H           2.8701   26.2025   13.1107 H       1  UNL1        0.0278
     21 H           4.0047   25.0829   13.8614 H       1  UNL1        0.0278
     22 C           3.2009   25.3649    9.7514 C.3     1  UNL1       -0.0303
     23 H           2.6418   24.6180   10.3214 H       1  UNL1        0.0311
     24 H           3.4644   24.9119    8.7914 H       1  UNL1        0.0311
     25 C           2.2913   26.5742    9.5165 C.3     1  UNL1       -0.0613
     26 H           2.0061   27.0227   10.4659 H       1  UNL1        0.0233
     27 H           1.3878   26.2719    8.9915 H       1  UNL1        0.0233
     28 H           2.8013   27.3285    8.9225 H       1  UNL1        0.0233
@<TRIPOS>BOND
     1     8     6    1
     2     9     6    1
     3     7     6    1
     4     6     1    1
     5    24    22    1
     6    28    25    1
     7    27    25    1
     8    25    22    1
     9    25    26    1
    10    22    23    1
    11    22     5    1
    12    11    10    1
    13     1     5    2
    14     1     2    1
    15     5     4    1
    16    10    13    1
    17    10     2    1
    18    10    12    1
    19     2     3    1
    20     4     3    2
    21     4    18    1
    22     3    14    1
    23    19    18    1
    24    18    20    1
    25    18    21    1
    26    14    17    1
    27    14    16    1
    28    14    15    1
