@<TRIPOS>MOLECULE
1,2,4,5,6
 29 29 0 0 0
SMALL
GASTEIGER

@<TRIPOS>ATOM
      1 C          -1.6796    2.8551    0.8864 C.2     1  UNL1        0.0000
      2 C          -1.5109    4.1616    1.2119 C.2     1  UNL1        0.0000
      3 C          -1.9398    4.7537    2.5314 C.3     1  UNL1        0.0000
      4 C          -0.7446    4.5958    3.4713 C.3     1  UNL1        0.0000
      5 C          -0.4631    3.3908    4.1250 C.3     1  UNL1        0.0000
      6 C          -0.6901    2.0931    3.5756 C.3     1  UNL1        0.0000
      7 C          -1.9876    1.6480    2.9960 C.2     1  UNL1        0.0000
      8 C          -2.4017    1.9301    1.7666 C.2     1  UNL1        0.0000
      9 SI         -2.4663    6.5880    2.3347 Si      1  UNL1        0.0000
     10 C          -0.9834    7.5944    1.6815 C.3     1  UNL1        0.0000
     11 C          -3.0190    7.2421    4.0379 C.3     1  UNL1        0.0000
     12 C          -3.9176    6.6458    1.1010 C.3     1  UNL1        0.0000
     13 H          -0.0574    7.3130    2.1766 H       1  UNL1        0.0000
     14 H          -0.8357    7.4483    0.6151 H       1  UNL1        0.0000
     15 H          -1.1301    8.6581    1.8430 H       1  UNL1        0.0000
     16 H          -2.1967    7.2867    4.7455 H       1  UNL1        0.0000
     17 H          -3.4221    8.2454    3.9453 H       1  UNL1        0.0000
     18 H          -3.7936    6.6184    4.4744 H       1  UNL1        0.0000
     19 H          -3.6525    6.2083    0.1432 H       1  UNL1        0.0000
     20 H          -4.7823    6.1081    1.4780 H       1  UNL1        0.0000
     21 H          -4.2252    7.6703    0.9191 H       1  UNL1        0.0000
     22 H          -1.5138    2.5290   -0.1383 H       1  UNL1        0.0000
     23 H          -1.2005    4.8613    0.4390 H       1  UNL1        0.0000
     24 H          -2.7764    4.1649    2.9315 H       1  UNL1        0.0000
     25 H          -0.4601    5.4994    4.0101 H       1  UNL1        0.0000
     26 H           0.1591    3.4480    5.0202 H       1  UNL1        0.0000
     27 H          -0.2901    1.3007    4.2175 H       1  UNL1        0.0000
     28 H          -2.5690    0.9814    3.6252 H       1  UNL1        0.0000
     29 H          -3.3122    1.5049    1.3635 H       1  UNL1        0.0000
@<TRIPOS>BOND
     1    22     1    1
     2    19    12    1
     3    23     2    1
     4    14    10    1
     5     1     2    2
     6     1     8    1
     7    21    12    1
     8    12    20    1
     9    12     9    1
    10     2     3    1
    11    29     8    1
    12    10    15    1
    13    10    13    1
    14    10     9    1
    15     8     7    2
    16     9     3    1
    17     9    11    1
    18     3    24    1
    19     3     4    1
    20     7     6    1
    21     7    28    1
    22     4    25    1
    23     4     5    1
    24     6     5    1
    25     6    27    1
    26    17    11    1
    27    11    18    1
    28    11    16    1
    29     5    26    1
