@<TRIPOS>MOLECULE
1,2,3,4,5
 25 25 0 0 0
SMALL
GASTEIGER

@<TRIPOS>ATOM
      1 C           5.9693   23.5175   -0.7396 C.2     1  UNL1       -0.0477
      2 C           7.2700   22.9556   -0.8267 C.2     1  UNL1       -0.0477
      3 C           7.4479   22.1013    0.2878 C.2     1  UNL1       -0.0584
      4 C           6.2600   22.1372    1.0677 C.3     1  UNL1        0.0231
      5 C           5.3341   23.0030    0.4110 C.2     1  UNL1       -0.0584
      6 C           5.3109   24.3480   -1.8036 C.3     1  UNL1       -0.0395
      7 C           8.1638   23.0529   -2.0311 C.3     1  UNL1       -0.0395
      8 C           8.5989   21.1717    0.5567 C.3     1  UNL1       -0.0424
      9 C           5.9974   21.2088    2.2226 C.3     1  UNL1       -0.0510
     10 C           3.8707   23.1585    0.7115 C.3     1  UNL1       -0.0424
     11 H           4.9334   23.7070   -2.6063 H       1  UNL1        0.0278
     12 H           6.0092   25.0563   -2.2548 H       1  UNL1        0.0278
     13 H           4.4654   24.9054   -1.4015 H       1  UNL1        0.0278
     14 H           7.8528   22.3231   -2.7847 H       1  UNL1        0.0278
     15 H           8.1142   24.0406   -2.4945 H       1  UNL1        0.0278
     16 H           9.2067   22.8481   -1.7842 H       1  UNL1        0.0278
     17 H           8.2744   20.1325    0.4499 H       1  UNL1        0.0275
     18 H           9.4174   21.3353   -0.1437 H       1  UNL1        0.0275
     19 H           8.9756   21.2980    1.5745 H       1  UNL1        0.0275
     20 H           6.7842   21.2931    2.9761 H       1  UNL1        0.0242
     21 H           5.0426   21.4231    2.6995 H       1  UNL1        0.0242
     22 H           5.9758   20.1722    1.8724 H       1  UNL1        0.0242
     23 H           3.5961   22.6209    1.6165 H       1  UNL1        0.0275
     24 H           3.5907   24.2043    0.8399 H       1  UNL1        0.0275
     25 H           3.2798   22.7500   -0.1135 H       1  UNL1        0.0275
@<TRIPOS>BOND
     1    14     7    1
     2    11     6    1
     3    15     7    1
     4    12     6    1
     5     7    16    1
     6     7     2    1
     7     6    13    1
     8     6     1    1
     9     2     1    1
    10     2     3    2
    11     1     5    2
    12    18     8    1
    13    25    10    1
    14     3     8    1
    15     3     4    1
    16     5    10    1
    17     5     4    1
    18    17     8    1
    19     8    19    1
    20    10    24    1
    21    10    23    1
    22     4     9    1
    23    22     9    1
    24     9    21    1
    25     9    20    1
