@<TRIPOS>MOLECULE
1,3,5,7,9
 10 10 0 0 0
SMALL
GASTEIGER

@<TRIPOS>ATOM
      1 C           3.3278    3.0416    5.6429 C.2     1  UNL1       -0.0763
      2 H           3.4344    3.7632    6.4347 H       1  UNL1        0.0578
      3 C           2.1894    2.2470    5.3959 C.2     1  UNL1       -0.0654
      4 H           1.2639    2.2803    5.9425 H       1  UNL1        0.0615
      5 C           2.5008    1.3583    4.3463 C.2     1  UNL1       -0.0654
      6 H           1.8682    0.5633    3.9861 H       1  UNL1        0.0615
      7 C           3.8665    1.5481    3.9974 C.2     1  UNL1       -0.0763
      8 H           4.4309    0.9314    3.3167 H       1  UNL1        0.0578
      9 C           4.3732    2.5852    4.7970 C.3     1  UNL1        0.0054
     10 H           5.3955    2.9252    4.8279 H       1  UNL1        0.0394
@<TRIPOS>BOND
     1     8     7    1
     2     6     5    1
     3     7     5    2
     4     7     9    1
     5     5     3    1
     6     9    10    1
     7     9     1    1
     8     3     1    2
     9     3     4    1
    10     1     2    1
