@<TRIPOS>MOLECULE
1,2,3,4,5
 19 19 0 0 0
SMALL
GASTEIGER

@<TRIPOS>ATOM
      1 C           0.7014    4.5902    3.5135 C.3     1  UNL1       -0.0107
      2 C           1.4678    4.2570    4.6077 C.2     1  UNL1       -0.0835
      3 C           2.1725    3.0240    4.6783 C.2     1  UNL1       -0.0837
      4 C           2.0133    2.1097    3.6155 C.3     1  UNL1       -0.0127
      5 C           1.1963    2.4025    2.5224 C.3     1  UNL1       -0.0246
      6 C           0.8991    3.8624    2.1901 C.3     1  UNL1       -0.0244
      7 C          -0.3695    3.9633    1.3306 C.3     1  UNL1       -0.0590
      8 C           2.0790    4.4967    1.4174 C.3     1  UNL1       -0.0590
      9 H           0.2408    5.5741    3.4571 H       1  UNL1        0.0354
     10 H           1.5334    4.9517    5.4441 H       1  UNL1        0.0572
     11 H           2.8552    2.8295    5.4932 H       1  UNL1        0.0572
     12 H           2.5245    1.1482    3.6671 H       1  UNL1        0.0352
     13 H           1.2139    1.7344    1.6627 H       1  UNL1        0.0315
     14 H          -1.1963    3.4335    1.8195 H       1  UNL1        0.0235
     15 H          -0.2005    3.5230    0.3492 H       1  UNL1        0.0235
     16 H          -0.6454    5.0072    1.1838 H       1  UNL1        0.0235
     17 H           2.2533    3.9678    0.4823 H       1  UNL1        0.0235
     18 H           1.8731    5.5414    1.1927 H       1  UNL1        0.0235
     19 H           2.9848    4.4443    2.0184 H       1  UNL1        0.0235
@<TRIPOS>BOND
     1    15     7    1
     2    17     8    1
     3    16     7    1
     4    18     8    1
     5     7    14    1
     6     7     6    1
     7     8    19    1
     8     8     6    1
     9    13     5    1
    10     6     5    1
    11     6     1    1
    12     5     4    1
    13     9     1    1
    14     1     2    1
    15     4    12    1
    16     4     3    1
    17     2     3    2
    18     2    10    1
    19     3    11    1
