@<TRIPOS>MOLECULE
1,2,3,4,5
 25 25 0 0 0
SMALL
GASTEIGER

@<TRIPOS>ATOM
      1 C           8.3270   17.6494   10.2790 C.2     1  UNL1       -0.0584
      2 C           7.7632   17.4312    8.9895 C.2     1  UNL1       -0.0477
      3 C           6.3581   17.6511    9.0814 C.2     1  UNL1       -0.0477
      4 C           6.0547   18.0315   10.4213 C.2     1  UNL1       -0.0584
      5 C           7.2736   18.0370   11.1646 C.3     1  UNL1        0.0231
      6 C           9.7896   17.6946   10.6000 C.3     1  UNL1       -0.0424
      7 H          10.1835   18.6931   10.4000 H       1  UNL1        0.0275
      8 H          10.3442   16.9791    9.9978 H       1  UNL1        0.0275
      9 H           9.9655   17.4650   11.6481 H       1  UNL1        0.0275
     10 C           8.4919   17.1256    7.7220 C.3     1  UNL1       -0.0395
     11 H           8.1791   16.1590    7.3218 H       1  UNL1        0.0278
     12 H           9.5652   17.0925    7.8861 H       1  UNL1        0.0278
     13 H           8.2767   17.8884    6.9736 H       1  UNL1        0.0278
     14 C           5.4217   17.6610    7.9169 C.3     1  UNL1       -0.0395
     15 H           5.4716   18.6235    7.4040 H       1  UNL1        0.0278
     16 H           4.3952   17.5009    8.2373 H       1  UNL1        0.0278
     17 H           5.6903   16.8818    7.2074 H       1  UNL1        0.0278
     18 C           4.7360   18.5509   10.9048 C.3     1  UNL1       -0.0424
     19 H           4.6832   19.6301   10.7482 H       1  UNL1        0.0275
     20 H           4.6028   18.3551   11.9660 H       1  UNL1        0.0275
     21 H           3.9125   18.0876   10.3669 H       1  UNL1        0.0275
     22 C           7.4443   18.5614   12.5563 C.3     1  UNL1       -0.0510
     23 H           8.2933   18.0929   13.0478 H       1  UNL1        0.0242
     24 H           6.5567   18.3701   13.1543 H       1  UNL1        0.0242
     25 H           7.6148   19.6397   12.5342 H       1  UNL1        0.0242
@<TRIPOS>BOND
     1    13    10    1
     2    17    14    1
     3    11    10    1
     4    15    14    1
     5    10    12    1
     6    10     2    1
     7    14    16    1
     8    14     3    1
     9     2     3    1
    10     2     1    2
    11     3     4    2
    12     8     6    1
    13     1     6    1
    14     1     5    1
    15    21    18    1
    16     7     6    1
    17     4    18    1
    18     4     5    1
    19     6     9    1
    20    19    18    1
    21    18    20    1
    22     5    22    1
    23    25    22    1
    24    22    23    1
    25    22    24    1
