@<TRIPOS>MOLECULE
1,2,3,4,5
 10 10 0 0 0
SMALL
GASTEIGER

@<TRIPOS>ATOM
      1 C          -1.2508   18.6757    1.5522 C.3     1  UNL1        0.0054
      2 C          -1.6578   18.8873    2.9026 C.2     1  UNL1       -0.0763
      3 C          -0.9167   19.9670    3.4166 C.2     1  UNL1       -0.0654
      4 C          -0.0575   20.4290    2.3910 C.2     1  UNL1       -0.0654
      5 C          -0.2640   19.6295    1.2423 C.2     1  UNL1       -0.0763
      6 H          -1.7339   18.0117    0.8468 H       1  UNL1        0.0394
      7 H          -2.4903   18.3965    3.3906 H       1  UNL1        0.0578
      8 H          -1.0759   20.4582    4.3692 H       1  UNL1        0.0615
      9 H           0.5242   21.3383    2.4254 H       1  UNL1        0.0615
     10 H           0.1609   19.8124    0.2631 H       1  UNL1        0.0578
@<TRIPOS>BOND
     1    10     5    1
     2     6     1    1
     3     5     1    1
     4     5     4    2
     5     1     2    1
     6     4     9    1
     7     4     3    1
     8     2     7    1
     9     2     3    2
    10     3     8    1
