@<TRIPOS>MOLECULE
5,6,7,8,9
 67 69 0 0 0
SMALL
GASTEIGER

@<TRIPOS>ATOM
      1 SI          5.3965    2.5999    2.2169 Si      1  UNL1        0.0000
      2 SI          9.0903    7.1291    2.4082 Si      1  UNL1        0.0000
      3 O           6.8863    5.0424    0.9200 O.3     1  UNL1        0.0000
      4 H           7.2336    5.8821    0.5813 H       1  UNL1        0.0000
      5 C           7.0900    4.9615    2.2565 C.3     1  UNL1        0.0000
      6 C           6.5430    3.8705    3.0151 C.2     1  UNL1        0.0000
      7 C           7.1163    3.9576    4.3044 C.2     1  UNL1        0.0000
      8 C           7.9894    5.1072    4.3325 C.3     1  UNL1        0.0000
      9 C           8.0356    5.6953    3.0307 C.3     1  UNL1        0.0000
     10 C           4.1086    3.4453    1.0930 C.3     1  UNL1        0.0000
     11 H           4.5967    4.0579    0.3426 H       1  UNL1        0.0000
     12 H           3.4428    4.0860    1.6639 H       1  UNL1        0.0000
     13 H           3.4965    2.7089    0.5802 H       1  UNL1        0.0000
     14 C           6.4557    1.4021    1.1767 C.3     1  UNL1        0.0000
     15 H           7.1831    0.8544    1.7680 H       1  UNL1        0.0000
     16 H           6.9989    1.9546    0.4166 H       1  UNL1        0.0000
     17 H           5.8254    0.6783    0.6699 H       1  UNL1        0.0000
     18 C           4.4366    1.7250    3.6022 C.ar    1  UNL1        0.0000
     19 C           4.4013    0.3418    3.7297 C.ar    1  UNL1        0.0000
     20 H           4.9464   -0.2685    3.0245 H       1  UNL1        0.0000
     21 C           3.6853   -0.2670    4.7457 C.ar    1  UNL1        0.0000
     22 H           3.6753   -1.3447    4.8295 H       1  UNL1        0.0000
     23 C           2.9831    0.5038    5.6561 C.ar    1  UNL1        0.0000
     24 H           2.4242    0.0314    6.4512 H       1  UNL1        0.0000
     25 C           3.0015    1.8846    5.5432 C.ar    1  UNL1        0.0000
     26 H           2.4566    2.4925    6.2516 H       1  UNL1        0.0000
     27 C           3.7215    2.4842    4.5267 C.ar    1  UNL1        0.0000
     28 H           3.7432    3.5655    4.4510 H       1  UNL1        0.0000
     29 C           6.9903    2.9355    5.3950 C.3     1  UNL1        0.0000
     30 H           5.9390    2.7169    5.5899 H       1  UNL1        0.0000
     31 H           7.4289    3.3205    6.3176 H       1  UNL1        0.0000
     32 C           7.6837    1.6229    5.0145 C.3     1  UNL1        0.0000
     33 H           7.2446    1.2510    4.0884 H       1  UNL1        0.0000
     34 H           8.7456    1.8028    4.8319 H       1  UNL1        0.0000
     35 C           7.5146    0.5751    6.1061 C.3     1  UNL1        0.0000
     36 H           7.9364    0.9251    7.0462 H       1  UNL1        0.0000
     37 H           8.0145   -0.3503    5.8294 H       1  UNL1        0.0000
     38 H           6.4586    0.3630    6.2603 H       1  UNL1        0.0000
     39 C           8.9546    5.4365    5.4326 C.3     1  UNL1        0.0000
     40 H           8.4989    5.2724    6.4115 H       1  UNL1        0.0000
     41 H           9.2322    6.4889    5.3674 H       1  UNL1        0.0000
     42 C          10.2232    4.5818    5.3184 C.3     1  UNL1        0.0000
     43 H           9.9782    3.5388    5.5232 H       1  UNL1        0.0000
     44 H          10.6001    4.6389    4.2956 H       1  UNL1        0.0000
     45 C          11.2987    5.0484    6.2906 C.3     1  UNL1        0.0000
     46 H          11.5814    6.0788    6.0841 H       1  UNL1        0.0000
     47 H          12.1866    4.4259    6.2067 H       1  UNL1        0.0000
     48 H          10.9375    4.9936    7.3154 H       1  UNL1        0.0000
     49 C          10.8610    6.5520    1.9987 C.3     1  UNL1        0.0000
     50 H          11.3914    7.3182    1.4417 H       1  UNL1        0.0000
     51 H          10.8672    5.6418    1.4061 H       1  UNL1        0.0000
     52 H          11.4293    6.3595    2.9029 H       1  UNL1        0.0000
     53 C           9.1326    8.5989    3.6284 C.3     1  UNL1        0.0000
     54 H           9.9520    8.5114    4.3350 H       1  UNL1        0.0000
     55 H           8.2088    8.6684    4.1968 H       1  UNL1        0.0000
     56 H           9.2634    9.5367    3.0965 H       1  UNL1        0.0000
     57 C           8.2205    7.7426    0.8286 C.ar    1  UNL1        0.0000
     58 C           8.7758    7.6000   -0.4409 C.ar    1  UNL1        0.0000
     59 H           9.7444    7.1338   -0.5461 H       1  UNL1        0.0000
     60 C           8.1084    8.0444   -1.5690 C.ar    1  UNL1        0.0000
     61 H           8.5593    7.9258   -2.5437 H       1  UNL1        0.0000
     62 C           6.8653    8.6420   -1.4486 C.ar    1  UNL1        0.0000
     63 H           6.3433    8.9891   -2.3281 H       1  UNL1        0.0000
     64 C           6.2963    8.7967   -0.1948 C.ar    1  UNL1        0.0000
     65 H           5.3277    9.2636   -0.0932 H       1  UNL1        0.0000
     66 C           6.9698    8.3535    0.9281 C.ar    1  UNL1        0.0000
     67 H           6.5207    8.4761    1.9046 H       1  UNL1        0.0000
@<TRIPOS>BOND
     1    61    60    1
     2    63    62    1
     3    60    62   ar
     4    60    58   ar
     5    62    64   ar
     6    59    58    1
     7    58    57   ar
     8    64    65    1
     9    64    66   ar
    10    11    10    1
    11    16    14    1
    12    13    10    1
    13     4     3    1
    14    17    14    1
    15    57    66   ar
    16    57     2    1
    17     3     5    1
    18    66    67    1
    19    10    12    1
    20    10     1    1
    21    14    15    1
    22    14     1    1
    23    51    49    1
    24    50    49    1
    25    49     2    1
    26    49    52    1
    27     1     6    1
    28     1    18    1
    29     5     6    1
    30     5     9    1
    31     2     9    1
    32     2    53    1
    33     6     7    2
    34    20    19    1
    35     9     8    1
    36    56    53    1
    37    18    19   ar
    38    18    27   ar
    39    53    55    1
    40    53    54    1
    41    19    21   ar
    42    33    32    1
    43    44    42    1
    44     7     8    1
    45     7    29    1
    46     8    39    1
    47    28    27    1
    48    27    25   ar
    49    21    22    1
    50    21    23   ar
    51    34    32    1
    52    32    29    1
    53    32    35    1
    54    42    39    1
    55    42    43    1
    56    42    45    1
    57    41    39    1
    58    29    30    1
    59    29    31    1
    60    39    40    1
    61    25    23   ar
    62    25    26    1
    63    23    24    1
    64    37    35    1
    65    46    45    1
    66    35    38    1
    67    35    36    1
    68    47    45    1
    69    45    48    1
