@<TRIPOS>MOLECULE
1,2,3,4,5
 10 10 0 0 0
SMALL
GASTEIGER

@<TRIPOS>ATOM
      1 C           4.8617   -0.7907    1.4128 C.3     1  UNL1       -0.0127
      2 C           6.0201   -0.3528    0.7099 C.2     1  UNL1       -0.0837
      3 C           5.6403   -0.0981   -0.6167 C.2     1  UNL1       -0.0837
      4 C           4.2501   -0.3422   -0.7358 C.3     1  UNL1       -0.0127
      5 C           3.7860   -0.7931    0.5136 C.3     1  UNL1       -0.0235
      6 H           4.8613   -1.1834    2.4134 H       1  UNL1        0.0352
      7 H           7.0231   -0.3476    1.1007 H       1  UNL1        0.0572
      8 H           6.2975    0.1472   -1.4324 H       1  UNL1        0.0572
      9 H           3.6921   -0.3347   -1.6534 H       1  UNL1        0.0352
     10 H           2.7799   -1.0958    0.7315 H       1  UNL1        0.0315
@<TRIPOS>BOND
     1     9     4    1
     2     8     3    1
     3     4     3    1
     4     4     5    1
     5     3     2    2
     6     5    10    1
     7     5     1    1
     8     2     7    1
     9     2     1    1
    10     1     6    1
