@<TRIPOS>MOLECULE
3,4,5,6,7
 34 34 0 0 0
SMALL
GASTEIGER

@<TRIPOS>ATOM
      1 SI         -2.1935    0.2158    2.0338 Si      1  UNL1        0.0000
      2 SI          1.8872    4.3392    2.2868 Si      1  UNL1        0.0000
      3 C          -1.3187    1.7888    2.5933 C.3     1  UNL1        0.0000
      4 C          -0.0096    2.1570    2.2138 C.2     1  UNL1        0.0000
      5 C           0.3054    3.4352    2.7441 C.2     1  UNL1        0.0000
      6 C          -0.8597    3.8798    3.4325 C.2     1  UNL1        0.0000
      7 C          -1.8397    2.8732    3.3592 C.2     1  UNL1        0.0000
      8 C          -1.1237   -1.3245    2.3975 C.3     1  UNL1        0.0000
      9 C          -3.9325    0.1137    2.8167 C.3     1  UNL1        0.0000
     10 C          -2.3954    0.3556    0.1349 C.3     1  UNL1        0.0000
     11 C           1.9020    4.5611    0.3878 C.3     1  UNL1        0.0000
     12 C           3.3914    3.2675    2.8004 C.3     1  UNL1        0.0000
     13 C           1.9975    6.0758    3.0833 C.3     1  UNL1        0.0000
     14 H           0.6287    1.5880    1.5481 H       1  UNL1        0.0000
     15 H          -1.0025    4.8739    3.8332 H       1  UNL1        0.0000
     16 H          -2.8650    2.9520    3.6973 H       1  UNL1        0.0000
     17 H          -1.5163   -2.1996    1.8883 H       1  UNL1        0.0000
     18 H          -0.0994   -1.1809    2.0610 H       1  UNL1        0.0000
     19 H          -1.0898   -1.5491    3.4598 H       1  UNL1        0.0000
     20 H          -4.4444   -0.7821    2.4809 H       1  UNL1        0.0000
     21 H          -3.8827    0.0788    3.8999 H       1  UNL1        0.0000
     22 H          -4.5453    0.9639    2.5324 H       1  UNL1        0.0000
     23 H          -2.9233   -0.5071   -0.2561 H       1  UNL1        0.0000
     24 H          -2.9598    1.2397   -0.1422 H       1  UNL1        0.0000
     25 H          -1.4353    0.4088   -0.3678 H       1  UNL1        0.0000
     26 H           2.8131    5.0527    0.0610 H       1  UNL1        0.0000
     27 H           1.8425    3.6050   -0.1228 H       1  UNL1        0.0000
     28 H           1.0640    5.1633    0.0510 H       1  UNL1        0.0000
     29 H           3.9715    3.7304    3.5940 H       1  UNL1        0.0000
     30 H           3.0801    2.2794    3.1409 H       1  UNL1        0.0000
     31 H           4.0651    3.1218    1.9612 H       1  UNL1        0.0000
     32 H           2.6851    6.6941    2.5155 H       1  UNL1        0.0000
     33 H           1.0375    6.5824    3.0862 H       1  UNL1        0.0000
     34 H           2.3655    6.0457    4.1041 H       1  UNL1        0.0000
@<TRIPOS>BOND
     1    25    10    1
     2    23    10    1
     3    24    10    1
     4    27    11    1
     5    28    11    1
     6    26    11    1
     7    10     1    1
     8    11     2    1
     9    14     4    1
    10    17     8    1
    11    31    12    1
    12     1     8    1
    13     1     3    1
    14     1     9    1
    15    18     8    1
    16     4     3    1
    17     4     5    2
    18     2     5    1
    19     2    12    1
    20     2    13    1
    21     8    19    1
    22    20     9    1
    23    32    13    1
    24    22     9    1
    25     3     7    1
    26     5     6    1
    27    12    30    1
    28    12    29    1
    29     9    21    1
    30    13    33    1
    31    13    34    1
    32     7     6    2
    33     7    16    1
    34     6    15    1
