@<TRIPOS>MOLECULE
1,2,3,4,5
 34 34 0 0 0
SMALL
GASTEIGER

@<TRIPOS>ATOM
      1 C           1.3181    1.7893    6.7294 C.3     1  UNL1        0.0000
      2 C           0.0093    2.1573    7.1101 C.2     1  UNL1        0.0000
      3 C          -0.3066    3.4351    6.5796 C.2     1  UNL1        0.0000
      4 C           0.8580    3.8802    5.8907 C.2     1  UNL1        0.0000
      5 C           1.8382    2.8736    5.9629 C.2     1  UNL1        0.0000
      6 SI          2.1943    0.2168    7.2883 Si      1  UNL1        0.0000
      7 H          -0.6283    1.5883    7.7765 H       1  UNL1        0.0000
      8 SI         -1.8878    4.3396    7.0381 Si      1  UNL1        0.0000
      9 H           1.0002    4.8743    5.4900 H       1  UNL1        0.0000
     10 H           2.8632    2.9526    5.6239 H       1  UNL1        0.0000
     11 C           1.1222   -1.3229    6.9288 C.3     1  UNL1        0.0000
     12 C           3.9314    0.1130    6.5013 C.3     1  UNL1        0.0000
     13 C           2.4021    0.3585    9.1863 C.3     1  UNL1        0.0000
     14 C          -1.9016    4.5604    8.9373 C.3     1  UNL1        0.0000
     15 C          -3.3930    3.2697    6.5240 C.3     1  UNL1        0.0000
     16 C          -1.9971    6.0769    6.2431 C.3     1  UNL1        0.0000
     17 H           1.5100   -2.1960    7.4453 H       1  UNL1        0.0000
     18 H           0.0964   -1.1741    7.2593 H       1  UNL1        0.0000
     19 H           1.0932   -1.5534    5.8673 H       1  UNL1        0.0000
     20 H           4.4434   -0.7829    6.8367 H       1  UNL1        0.0000
     21 H           3.8791    0.0772    5.4183 H       1  UNL1        0.0000
     22 H           4.5454    0.9630    6.7836 H       1  UNL1        0.0000
     23 H           2.9304   -0.5044    9.5765 H       1  UNL1        0.0000
     24 H           2.9683    1.2423    9.4609 H       1  UNL1        0.0000
     25 H           1.4438    0.4130    9.6922 H       1  UNL1        0.0000
     26 H          -2.8121    5.0524    9.2650 H       1  UNL1        0.0000
     27 H          -1.8427    3.6038    9.4471 H       1  UNL1        0.0000
     28 H          -1.0630    5.1616    9.2744 H       1  UNL1        0.0000
     29 H          -3.9745    3.7344    5.7330 H       1  UNL1        0.0000
     30 H          -3.0830    2.2826    6.1805 H       1  UNL1        0.0000
     31 H          -4.0652    3.1217    7.3635 H       1  UNL1        0.0000
     32 H          -2.6868    6.6942    6.8093 H       1  UNL1        0.0000
     33 H          -1.0375    6.5842    6.2434 H       1  UNL1        0.0000
     34 H          -2.3620    6.0473    5.2213 H       1  UNL1        0.0000
@<TRIPOS>BOND
     1    34    16    1
     2    21    12    1
     3     9     4    1
     4    10     5    1
     5    29    15    1
     6    19    11    1
     7     4     5    2
     8     4     3    1
     9     5     1    1
    10    30    15    1
    11    16    33    1
    12    16    32    1
    13    16     8    1
    14    12    22    1
    15    12    20    1
    16    12     6    1
    17    15     8    1
    18    15    31    1
    19     3     8    1
    20     3     2    2
    21     1     2    1
    22     1     6    1
    23    11    18    1
    24    11     6    1
    25    11    17    1
    26     8    14    1
    27     2     7    1
    28     6    13    1
    29    14    26    1
    30    14    28    1
    31    14    27    1
    32    13    24    1
    33    13    23    1
    34    13    25    1
