@<TRIPOS>MOLECULE
1,2,3,4,5
 25 25 0 0 0
SMALL
GASTEIGER

@<TRIPOS>ATOM
      1 C           1.0994    2.3974    4.9189 C.2     1  UNL1       -0.0584
      2 C          -0.0231    2.6123    4.0479 C.3     1  UNL1        0.0231
      3 C           0.4312    2.4736    2.7077 C.2     1  UNL1       -0.0584
      4 C           1.8272    2.1560    2.7489 C.2     1  UNL1       -0.0477
      5 C           2.2490    2.1854    4.1116 C.2     1  UNL1       -0.0477
      6 C           1.1029    2.6259    6.3997 C.3     1  UNL1       -0.0424
      7 C          -1.3708    3.1082    4.4704 C.3     1  UNL1       -0.0510
      8 C          -0.3571    2.7925    1.4756 C.3     1  UNL1       -0.0424
      9 C           2.7551    2.0717    1.5775 C.3     1  UNL1       -0.0395
     10 C           3.6609    2.0523    4.5716 C.3     1  UNL1       -0.0395
     11 H           1.3298    3.6718    6.6163 H       1  UNL1        0.0275
     12 H           0.1324    2.3933    6.8308 H       1  UNL1        0.0275
     13 H           1.8487    2.0026    6.8872 H       1  UNL1        0.0275
     14 H          -1.3666    4.1988    4.5225 H       1  UNL1        0.0242
     15 H          -2.1370    2.8041    3.7616 H       1  UNL1        0.0242
     16 H          -1.6402    2.7225    5.4505 H       1  UNL1        0.0242
     17 H          -0.2707    3.8568    1.2485 H       1  UNL1        0.0275
     18 H           0.0097    2.2314    0.6198 H       1  UNL1        0.0275
     19 H          -1.4100    2.5583    1.6125 H       1  UNL1        0.0275
     20 H           3.2050    3.0471    1.3814 H       1  UNL1        0.0278
     21 H           3.5531    1.3596    1.7764 H       1  UNL1        0.0278
     22 H           2.2271    1.7533    0.6823 H       1  UNL1        0.0278
     23 H           4.3124    2.6813    3.9663 H       1  UNL1        0.0278
     24 H           3.7592    2.3439    5.6138 H       1  UNL1        0.0278
     25 H           4.0021    1.0184    4.4704 H       1  UNL1        0.0278
@<TRIPOS>BOND
     1    18     8    1
     2    22     9    1
     3    17     8    1
     4    20     9    1
     5     8    19    1
     6     8     3    1
     7     9    21    1
     8     9     4    1
     9     3     4    2
    10     3     2    1
    11     4     5    1
    12    15     7    1
    13    23    10    1
    14     2     7    1
    15     2     1    1
    16     5    10    1
    17     5     1    2
    18     7    14    1
    19     7    16    1
    20    25    10    1
    21    10    24    1
    22     1     6    1
    23     6    11    1
    24     6    12    1
    25     6    13    1
