@<TRIPOS>MOLECULE
1,2,3,4,5
 10 10 0 0 0
SMALL
GASTEIGER

@<TRIPOS>ATOM
      1 C          -1.6320    3.7240    1.4429 C.3     1  UNL1       -0.0235
      2 C          -0.9567    3.5808    0.2067 C.3     1  UNL1       -0.0127
      3 C          -0.9997    2.2133   -0.1674 C.2     1  UNL1       -0.0837
      4 C          -1.6636    1.5046    0.8540 C.2     1  UNL1       -0.0837
      5 C          -2.0363    2.4342    1.8596 C.3     1  UNL1       -0.0127
      6 H          -1.8841    4.6532    1.9297 H       1  UNL1        0.0315
      7 H          -0.6139    4.3910   -0.4140 H       1  UNL1        0.0352
      8 H          -0.6659    1.8052   -1.1074 H       1  UNL1        0.0572
      9 H          -1.9317    0.4608    0.8306 H       1  UNL1        0.0572
     10 H          -2.6640    2.2195    2.7086 H       1  UNL1        0.0352
@<TRIPOS>BOND
     1     8     3    1
     2     7     2    1
     3     3     2    1
     4     3     4    2
     5     2     1    1
     6     9     4    1
     7     4     5    1
     8     1     5    1
     9     1     6    1
    10     5    10    1
