@<TRIPOS>MOLECULE
1,3,5,7,9
 10 10 0 0 0
SMALL
GASTEIGER

@<TRIPOS>ATOM
      1 C           7.8709    6.3654    8.2277 C.2     1  UNL1       -0.0654
      2 H           7.4682    6.2885    7.2254 H       1  UNL1        0.0615
      3 C           7.1191    6.5442    9.3979 C.2     1  UNL1       -0.0763
      4 H           6.0400    6.5859    9.4606 H       1  UNL1        0.0578
      5 C           8.0152    6.7833   10.4643 C.3     1  UNL1        0.0054
      6 H           7.7388    7.1226   11.4570 H       1  UNL1        0.0394
      7 C           9.3332    6.7994    9.9261 C.2     1  UNL1       -0.0763
      8 H          10.2153    7.1343   10.4611 H       1  UNL1        0.0578
      9 C           9.2425    6.5248    8.5492 C.2     1  UNL1       -0.0654
     10 H          10.0400    6.6036    7.8215 H       1  UNL1        0.0615
@<TRIPOS>BOND
     1     2     1    1
     2    10     9    1
     3     1     9    1
     4     1     3    2
     5     9     7    2
     6     3     4    1
     7     3     5    1
     8     7     8    1
     9     7     5    1
    10     5     6    1
