@<TRIPOS>MOLECULE
1,2,3,4,5
 10 10 0 0 0
SMALL
GASTEIGER

@<TRIPOS>ATOM
      1 C           4.7817    6.9093    2.8227 C.2     1  UNL1       -0.0654
      2 C           5.3932    5.6398    2.9255 C.2     1  UNL1       -0.0654
      3 C           4.4708    7.3584    4.1331 C.2     1  UNL1       -0.0763
      4 C           4.8409    6.3454    5.0365 C.3     1  UNL1        0.0054
      5 C           5.3837    5.2683    4.2850 C.2     1  UNL1       -0.0763
      6 H           4.7310    7.5148    1.9328 H       1  UNL1        0.0615
      7 H           5.8312    5.0734    2.1224 H       1  UNL1        0.0615
      8 H           4.1099    8.3399    4.3930 H       1  UNL1        0.0578
      9 H           4.8192    6.4143    6.1118 H       1  UNL1        0.0394
     10 H           5.8644    4.3966    4.6973 H       1  UNL1        0.0578
@<TRIPOS>BOND
     1     6     1    1
     2     7     2    1
     3     1     2    1
     4     1     3    2
     5     2     5    2
     6     3     8    1
     7     3     4    1
     8     5    10    1
     9     5     4    1
    10     4     9    1
