@<TRIPOS>MOLECULE
3,4,5,6,7
 40 41 0 0 0
SMALL
GASTEIGER

@<TRIPOS>ATOM
      1 SI          0.2485    7.3433    4.4992 Si      1  UNL1        0.0000
      2 SI         -3.0552    3.1592    1.8292 Si      1  UNL1        0.0000
      3 C           0.1234    4.4444    4.1466 C.ar    1  UNL1        0.0000
      4 C          -0.4198    5.7344    3.8198 C.3     1  UNL1        0.0000
      5 C          -1.5861    5.4848    3.0349 C.3     1  UNL1        0.0000
      6 C          -1.7474    4.0859    2.7920 C.3     1  UNL1        0.0000
      7 C          -0.6841    3.4333    3.5103 C.ar    1  UNL1        0.0000
      8 C          -0.3931    2.0800    3.7249 C.ar    1  UNL1        0.0000
      9 C           0.6614    1.7361    4.5477 C.ar    1  UNL1        0.0000
     10 C           1.4348    2.7158    5.1766 C.ar    1  UNL1        0.0000
     11 C           1.1752    4.0581    4.9890 C.ar    1  UNL1        0.0000
     12 C           0.0569    7.4383    6.4028 C.3     1  UNL1        0.0000
     13 H          -0.9826    7.5711    6.6863 H       1  UNL1        0.0000
     14 H           0.6181    8.2733    6.8109 H       1  UNL1        0.0000
     15 H           0.4103    6.5338    6.8871 H       1  UNL1        0.0000
     16 C          -0.6143    8.8855    3.7678 C.3     1  UNL1        0.0000
     17 H          -1.6659    8.7054    3.5699 H       1  UNL1        0.0000
     18 H          -0.1497    9.2076    2.8423 H       1  UNL1        0.0000
     19 H          -0.5531    9.7133    4.4665 H       1  UNL1        0.0000
     20 C           2.1221    7.3682    4.0559 C.3     1  UNL1        0.0000
     21 C          -4.1409    2.0599    2.9623 C.3     1  UNL1        0.0000
     22 C          -4.2446    4.3083    0.8705 C.3     1  UNL1        0.0000
     23 H          -4.6021    5.1174    1.4990 H       1  UNL1        0.0000
     24 H          -5.1129    3.7491    0.5378 H       1  UNL1        0.0000
     25 H          -3.7820    4.7461   -0.0065 H       1  UNL1        0.0000
     26 C          -2.0713    2.0176    0.6239 C.3     1  UNL1        0.0000
     27 H           0.8826    0.6935    4.7290 H       1  UNL1        0.0000
     28 H          -2.3230    6.2392    2.7735 H       1  UNL1        0.0000
     29 H           1.7557    4.8048    5.5142 H       1  UNL1        0.0000
     30 H           2.3211    6.7298    3.1898 H       1  UNL1        0.0000
     31 H           2.2362    2.4118    5.8355 H       1  UNL1        0.0000
     32 H           2.7324    7.0159    4.8824 H       1  UNL1        0.0000
     33 H           2.4657    8.3705    3.8193 H       1  UNL1        0.0000
     34 H          -3.5396    1.4646    3.6416 H       1  UNL1        0.0000
     35 H          -1.0090    1.3108    3.2786 H       1  UNL1        0.0000
     36 H          -4.7512    1.3788    2.3770 H       1  UNL1        0.0000
     37 H          -4.8107    2.6623    3.5679 H       1  UNL1        0.0000
     38 H          -2.5410    1.9578   -0.3532 H       1  UNL1        0.0000
     39 H          -2.0120    1.0015    1.0036 H       1  UNL1        0.0000
     40 H          -1.0491    2.3917    0.4864 H       1  UNL1        0.0000
@<TRIPOS>BOND
     1    38    26    1
     2    25    22    1
     3    40    26    1
     4    24    22    1
     5    26    39    1
     6    26     2    1
     7    22    23    1
     8    22     2    1
     9     2     6    1
    10     2    21    1
    11    36    21    1
    12    28     5    1
    13     6     5    1
    14     6     7    1
    15    18    16    1
    16    21    37    1
    17    21    34    1
    18     5     4    1
    19    30    20    1
    20    35     8    1
    21     7     8   ar
    22     7     3   ar
    23    17    16    1
    24     8     9   ar
    25    16    19    1
    26    16     1    1
    27    33    20    1
    28     4     3    1
    29     4     1    1
    30    20     1    1
    31    20    32    1
    32     3    11   ar
    33     1    12    1
    34     9    27    1
    35     9    10   ar
    36    11    10   ar
    37    11    29    1
    38    10    31    1
    39    12    13    1
    40    12    14    1
    41    12    15    1
