@<TRIPOS>MOLECULE
1,2,3,4,5
 25 25 0 0 0
SMALL
GASTEIGER

@<TRIPOS>ATOM
      1 C           4.3564   11.3784    2.9030 C.2     1  UNL1       -0.0477
      2 C           3.9716   10.0174    3.0002 C.2     1  UNL1       -0.0584
      3 C           2.5549    9.9592    3.1178 C.3     1  UNL1        0.0231
      4 C           2.0654   11.3003    3.1239 C.2     1  UNL1       -0.0584
      5 C           3.1692   12.1736    2.9857 C.2     1  UNL1       -0.0477
      6 C           5.7608   11.9083    2.9595 C.3     1  UNL1       -0.0395
      7 H           6.0665   12.0911    3.9967 H       1  UNL1        0.0278
      8 H           5.8487   12.8474    2.4132 H       1  UNL1        0.0278
      9 H           6.4658   11.2011    2.5224 H       1  UNL1        0.0278
     10 C           4.9024    8.8455    3.1236 C.3     1  UNL1       -0.0424
     11 H           5.8416    9.0307    2.6022 H       1  UNL1        0.0275
     12 H           4.4578    7.9452    2.6999 H       1  UNL1        0.0275
     13 H           5.1324    8.6461    4.1766 H       1  UNL1        0.0275
     14 C           1.7477    8.7403    3.4558 C.3     1  UNL1       -0.0510
     15 H           1.6869    8.6026    4.5425 H       1  UNL1        0.0242
     16 H           2.1937    7.8430    3.0278 H       1  UNL1        0.0242
     17 H           0.7318    8.8252    3.0706 H       1  UNL1        0.0242
     18 C           0.6457   11.6980    3.4123 C.3     1  UNL1       -0.0424
     19 H          -0.0580   11.0272    2.9185 H       1  UNL1        0.0275
     20 H           0.4426   12.7111    3.0653 H       1  UNL1        0.0275
     21 H           0.4462   11.6622    4.4896 H       1  UNL1        0.0275
     22 C           3.1399   13.6677    3.1394 C.3     1  UNL1       -0.0395
     23 H           3.2435   13.9476    4.1943 H       1  UNL1        0.0278
     24 H           2.2028   14.0857    2.7715 H       1  UNL1        0.0278
     25 H           3.9542   14.1352    2.5870 H       1  UNL1        0.0278
@<TRIPOS>BOND
     1     8     6    1
     2     9     6    1
     3    25    22    1
     4    11    10    1
     5    12    10    1
     6    24    22    1
     7     1     6    1
     8     1     5    1
     9     1     2    2
    10    19    18    1
    11     6     7    1
    12     5     4    2
    13     5    22    1
    14     2     3    1
    15     2    10    1
    16    16    14    1
    17    20    18    1
    18    17    14    1
    19     3     4    1
    20     3    14    1
    21    10    13    1
    22     4    18    1
    23    22    23    1
    24    18    21    1
    25    14    15    1
