@<TRIPOS>MOLECULE
1,2,3,4,5
 28 28 0 0 0
SMALL
GASTEIGER

@<TRIPOS>ATOM
      1 C           6.5176    3.5698    8.0584 C.2     1  UNL1       -0.0629
      2 C           7.2672    2.4575    7.5642 C.2     1  UNL1       -0.0655
      3 C           7.8696    2.8502    6.3351 C.3     1  UNL1        0.0052
      4 C           7.5144    4.2160    6.0804 C.3     1  UNL1       -0.0053
      5 C           6.6886    4.6623    7.1518 C.3     1  UNL1        0.0055
      6 C           5.8811    3.6573    9.4178 C.3     1  UNL1       -0.0338
      7 H           5.4963    2.6789    9.7196 H       1  UNL1        0.0308
      8 H           5.0334    4.3479    9.3959 H       1  UNL1        0.0308
      9 C           6.8966    4.1418   10.4563 C.3     1  UNL1       -0.0615
     10 H           7.7382    3.4550   10.5149 H       1  UNL1        0.0233
     11 H           6.4342    4.2068   11.4385 H       1  UNL1        0.0233
     12 H           7.2752    5.1253   10.1870 H       1  UNL1        0.0233
     13 C           7.5529    1.1901    8.3178 C.3     1  UNL1       -0.0430
     14 H           8.4456    1.3194    8.9350 H       1  UNL1        0.0275
     15 H           7.7312    0.3535    7.6434 H       1  UNL1        0.0275
     16 H           6.7260    0.9248    8.9746 H       1  UNL1        0.0275
     17 C           8.9154    2.0873    5.5752 C.3     1  UNL1       -0.0545
     18 H           9.9092    2.4583    5.8372 H       1  UNL1        0.0239
     19 H           8.7812    2.2094    4.5002 H       1  UNL1        0.0239
     20 H           8.8761    1.0242    5.8066 H       1  UNL1        0.0239
     21 C           8.1160    5.0716    5.0056 C.3     1  UNL1       -0.0574
     22 H           9.1084    5.4147    5.3086 H       1  UNL1        0.0236
     23 H           7.4986    5.9464    4.8099 H       1  UNL1        0.0236
     24 H           8.2174    4.5117    4.0764 H       1  UNL1        0.0236
     25 C           6.2478    6.0775    7.3831 C.3     1  UNL1       -0.0545
     26 H           7.0533    6.6510    7.8485 H       1  UNL1        0.0239
     27 H           5.3795    6.1178    8.0387 H       1  UNL1        0.0239
     28 H           5.9858    6.5667    6.4456 H       1  UNL1        0.0239
@<TRIPOS>BOND
     1    24    21    1
     2    19    17    1
     3    23    21    1
     4    21    22    1
     5    21     4    1
     6    17    20    1
     7    17    18    1
     8    17     3    1
     9     4     3    1
    10     4     5    1
    11     3     2    1
    12    28    25    1
    13     5    25    1
    14     5     1    1
    15    25    26    1
    16    25    27    1
    17     2     1    2
    18     2    13    1
    19    15    13    1
    20     1     6    1
    21    13    14    1
    22    13    16    1
    23     8     6    1
    24     6     7    1
    25     6     9    1
    26    12     9    1
    27     9    10    1
    28     9    11    1
