@<TRIPOS>MOLECULE
1,2,3,4,5
 25 25 0 0 0
SMALL
GASTEIGER

@<TRIPOS>ATOM
      1 C          -4.0300   -0.1209   -6.6166 C.2     1  UNL1       -0.0477
      2 C          -5.0798    0.2055   -7.5221 C.2     1  UNL1       -0.0477
      3 C          -6.2537   -0.5131   -7.1231 C.2     1  UNL1       -0.0584
      4 C          -5.9221   -1.2750   -5.9573 C.3     1  UNL1        0.0231
      5 C          -4.5435   -1.0238   -5.6470 C.2     1  UNL1       -0.0584
      6 C          -2.7072    0.5800   -6.5340 C.3     1  UNL1       -0.0395
      7 H          -2.7986    1.4598   -5.8923 H       1  UNL1        0.0278
      8 H          -2.3695    0.9164   -7.5126 H       1  UNL1        0.0278
      9 H          -1.9434   -0.0695   -6.1121 H       1  UNL1        0.0278
     10 C          -5.0610    1.3698   -8.4678 C.3     1  UNL1       -0.0395
     11 H          -5.8116    1.2636   -9.2482 H       1  UNL1        0.0278
     12 H          -4.0865    1.4953   -8.9381 H       1  UNL1        0.0278
     13 H          -5.2809    2.2850   -7.9126 H       1  UNL1        0.0278
     14 C          -7.6387   -0.2930   -7.6562 C.3     1  UNL1       -0.0424
     15 H          -8.2552   -1.1794   -7.5163 H       1  UNL1        0.0275
     16 H          -7.6180   -0.0585   -8.7188 H       1  UNL1        0.0275
     17 H          -8.1146    0.5393   -7.1329 H       1  UNL1        0.0275
     18 C          -6.8972   -1.9841   -5.0625 C.3     1  UNL1       -0.0510
     19 H          -6.4113   -2.7913   -4.5163 H       1  UNL1        0.0242
     20 H          -7.7197   -2.4085   -5.6366 H       1  UNL1        0.0242
     21 H          -7.3149   -1.2854   -4.3342 H       1  UNL1        0.0242
     22 C          -3.8721   -1.4220   -4.3680 C.3     1  UNL1       -0.0424
     23 H          -4.2062   -0.7635   -3.5626 H       1  UNL1        0.0275
     24 H          -2.7909   -1.3434   -4.4445 H       1  UNL1        0.0275
     25 H          -4.1174   -2.4446   -4.0854 H       1  UNL1        0.0275
@<TRIPOS>BOND
     1    11    10    1
     2    12    10    1
     3    16    14    1
     4    10    13    1
     5    10     2    1
     6    14    15    1
     7    14    17    1
     8    14     3    1
     9     2     3    2
    10     2     1    1
    11     8     6    1
    12     3     4    1
    13     1     6    1
    14     1     5    2
    15     6     9    1
    16     6     7    1
    17     4     5    1
    18     4    18    1
    19     5    22    1
    20    20    18    1
    21    18    19    1
    22    18    21    1
    23    24    22    1
    24    22    25    1
    25    22    23    1
