@<TRIPOS>MOLECULE
2,3,4,5,6
 22 22 0 0 0
SMALL
GASTEIGER

@<TRIPOS>ATOM
      1 SI          6.3605    6.4331   10.0114 Si      1  UNL1        0.0000
      2 C           5.1643    5.0118    9.6505 C.2     1  UNL1        0.0000
      3 C           5.2739    4.0494    8.6104 C.2     1  UNL1        0.0000
      4 C           4.0389    3.4005    8.4571 C.2     1  UNL1        0.0000
      5 C           3.1438    3.9286    9.4128 C.3     1  UNL1        0.0000
      6 C           3.8303    4.9303   10.1291 C.2     1  UNL1        0.0000
      7 C           8.1523    5.9858    9.5483 C.3     1  UNL1        0.0000
      8 C           6.2280    6.9287   11.8509 C.3     1  UNL1        0.0000
      9 C           5.7586    7.8827    8.9174 C.3     1  UNL1        0.0000
     10 H           8.7954    6.8564    9.6311 H       1  UNL1        0.0000
     11 H           8.5541    5.2183   10.2028 H       1  UNL1        0.0000
     12 H           8.2277    5.6203    8.5283 H       1  UNL1        0.0000
     13 H           6.8652    7.7814   12.0620 H       1  UNL1        0.0000
     14 H           5.2138    7.2063   12.1234 H       1  UNL1        0.0000
     15 H           6.5404    6.1158   12.5009 H       1  UNL1        0.0000
     16 H           6.3726    8.7612    9.0834 H       1  UNL1        0.0000
     17 H           5.8151    7.6369    7.8617 H       1  UNL1        0.0000
     18 H           4.7304    8.1530    9.1368 H       1  UNL1        0.0000
     19 H           6.1285    3.9295    7.9585 H       1  UNL1        0.0000
     20 H           3.7794    2.7202    7.6575 H       1  UNL1        0.0000
     21 H           2.0817    3.7232    9.4653 H       1  UNL1        0.0000
     22 H           3.3828    5.6401   10.8103 H       1  UNL1        0.0000
@<TRIPOS>BOND
     1    20     4    1
     2    17     9    1
     3    19     3    1
     4     4     3    2
     5     4     5    1
     6    12     7    1
     7     3     2    1
     8     9    16    1
     9     9    18    1
    10     9     1    1
    11     5    21    1
    12     5     6    1
    13     7    10    1
    14     7     1    1
    15     7    11    1
    16     2     1    1
    17     2     6    2
    18     1     8    1
    19     6    22    1
    20     8    13    1
    21     8    14    1
    22     8    15    1
