@<TRIPOS>MOLECULE
2,3,4,5,6
 22 22 0 0 0
SMALL
GASTEIGER

@<TRIPOS>ATOM
      1 SI          6.5402   -0.1504   12.8887 Si      1  UNL1        0.0000
      2 C           5.3052    0.4889   11.6054 C.2     1  UNL1        0.0000
      3 C           5.4374    0.4001   10.1926 C.2     1  UNL1        0.0000
      4 C           4.1902    0.6505    9.6009 C.2     1  UNL1        0.0000
      5 C           3.2619    0.9189   10.6304 C.3     1  UNL1        0.0000
      6 C           3.9427    0.7988   11.8585 C.2     1  UNL1        0.0000
      7 C           6.0177   -1.9596   13.2273 C.3     1  UNL1        0.0000
      8 C           6.3950    0.8611   14.5017 C.3     1  UNL1        0.0000
      9 C           8.3195   -0.1151   12.2107 C.3     1  UNL1        0.0000
     10 H           6.6739   -2.4116   13.9630 H       1  UNL1        0.0000
     11 H           5.0033   -2.0202   13.6091 H       1  UNL1        0.0000
     12 H           6.0661   -2.5645   12.3273 H       1  UNL1        0.0000
     13 H           7.0492    0.4531   15.2657 H       1  UNL1        0.0000
     14 H           6.6799    1.8978   14.3439 H       1  UNL1        0.0000
     15 H           5.3838    0.8462   14.8987 H       1  UNL1        0.0000
     16 H           9.0113   -0.5357   12.9335 H       1  UNL1        0.0000
     17 H           8.4137   -0.6921   11.2954 H       1  UNL1        0.0000
     18 H           8.6466    0.8977   11.9965 H       1  UNL1        0.0000
     19 H           6.3220    0.0645    9.6690 H       1  UNL1        0.0000
     20 H           3.9540    0.5213    8.5535 H       1  UNL1        0.0000
     21 H           2.1917    1.0277   10.5039 H       1  UNL1        0.0000
     22 H           3.4828    0.7751   12.8364 H       1  UNL1        0.0000
@<TRIPOS>BOND
     1    20     4    1
     2     4     3    2
     3     4     5    1
     4    19     3    1
     5     3     2    1
     6    21     5    1
     7     5     6    1
     8    17     9    1
     9     2     6    2
    10     2     1    1
    11     6    22    1
    12    18     9    1
    13     9     1    1
    14     9    16    1
    15    12     7    1
    16     1     7    1
    17     1     8    1
    18     7    11    1
    19     7    10    1
    20    14     8    1
    21     8    15    1
    22     8    13    1
