@<TRIPOS>MOLECULE
1,2,3,4,5
 13 13 0 0 0
SMALL
GASTEIGER

@<TRIPOS>ATOM
      1 C           6.8986    5.6961    3.2814 C.2     1  UNL1       -0.0650
      2 C           5.8692    4.7952    2.9164 C.2     1  UNL1       -0.0625
      3 C           6.2122    3.5120    3.3941 C.2     1  UNL1       -0.0651
      4 C           7.4550    3.6116    4.0588 C.2     1  UNL1       -0.0761
      5 C           7.8839    4.9561    3.9694 C.3     1  UNL1        0.0084
      6 C           7.0169    7.1476    2.8957 C.3     1  UNL1       -0.0429
      7 H           6.8697    7.8072    3.7557 H       1  UNL1        0.0275
      8 H           8.0067    7.3448    2.4815 H       1  UNL1        0.0275
      9 H           6.2779    7.4016    2.1375 H       1  UNL1        0.0275
     10 H           5.0306    5.0197    2.2679 H       1  UNL1        0.0617
     11 H           5.7106    2.5938    3.1339 H       1  UNL1        0.0615
     12 H           8.0511    2.7789    4.4166 H       1  UNL1        0.0578
     13 H           8.8594    5.3332    4.2518 H       1  UNL1        0.0397
@<TRIPOS>BOND
     1     9     6    1
     2    10     2    1
     3     8     6    1
     4     6     1    1
     5     6     7    1
     6     2     1    2
     7     2     3    1
     8    11     3    1
     9     1     5    1
    10     3     4    2
    11     5     4    1
    12     5    13    1
    13     4    12    1
