@<TRIPOS>MOLECULE
1,2,3,4,5
 13 13 0 0 0
SMALL
GASTEIGER

@<TRIPOS>ATOM
      1 C           6.8038    4.0597    7.5849 C.2     1  UNL1       -0.0650
      2 C           7.8498    4.7359    6.9216 C.2     1  UNL1       -0.0625
      3 C           7.5125    6.1059    6.8309 C.2     1  UNL1       -0.0651
      4 C           6.2657    6.2848    7.4711 C.2     1  UNL1       -0.0761
      5 C           5.8289    5.0251    7.9345 C.3     1  UNL1        0.0084
      6 C           6.8162    2.6005    7.9597 C.3     1  UNL1       -0.0429
      7 H           6.0571    2.3941    8.7125 H       1  UNL1        0.0275
      8 H           6.6262    1.9602    7.0934 H       1  UNL1        0.0275
      9 H           7.7874    2.3298    8.3764 H       1  UNL1        0.0275
     10 H           8.8041    4.2968    6.6567 H       1  UNL1        0.0617
     11 H           8.1702    6.8987    6.4906 H       1  UNL1        0.0615
     12 H           5.8215    7.2334    7.7268 H       1  UNL1        0.0578
     13 H           4.9645    4.8540    8.5650 H       1  UNL1        0.0397
@<TRIPOS>BOND
     1    11     3    1
     2    10     2    1
     3     3     2    1
     4     3     4    2
     5     2     1    2
     6     8     6    1
     7     4    12    1
     8     4     5    1
     9     1     5    1
    10     1     6    1
    11     5    13    1
    12     6     9    1
    13     6     7    1
