@<TRIPOS>MOLECULE
1,3,5,7,9
 10 10 0 0 0
SMALL
GASTEIGER

@<TRIPOS>ATOM
      1 C           1.8727    4.9314    1.9220 C.2     1  UNL1       -0.0763
      2 H           0.8834    5.2462    1.6204 H       1  UNL1        0.0578
      3 C           2.9130    4.5615    1.0456 C.2     1  UNL1       -0.0654
      4 H           2.8437    4.5353   -0.0319 H       1  UNL1        0.0615
      5 C           4.0917    4.4030    1.8023 C.2     1  UNL1       -0.0654
      6 H           5.0840    4.2454    1.4036 H       1  UNL1        0.0615
      7 C           3.7880    4.7162    3.1465 C.2     1  UNL1       -0.0763
      8 H           4.5079    4.8567    3.9335 H       1  UNL1        0.0578
      9 C           2.4236    5.0461    3.2203 C.3     1  UNL1        0.0054
     10 H           1.9198    5.4387    4.0914 H       1  UNL1        0.0394
@<TRIPOS>BOND
     1     4     3    1
     2     3     5    1
     3     3     1    2
     4     6     5    1
     5     2     1    1
     6     5     7    2
     7     1     9    1
     8     7     9    1
     9     7     8    1
    10     9    10    1
