@<TRIPOS>MOLECULE
1,3,5,7,9
 10 10 0 0 0
SMALL
GASTEIGER

@<TRIPOS>ATOM
      1 C           2.0576    1.6691    0.3939 C.2     1  UNL1       -0.0763
      2 H           1.4950    2.1246   -0.4091 H       1  UNL1        0.0578
      3 C           3.4613    1.6818    0.5297 C.2     1  UNL1       -0.0654
      4 H           4.1582    2.1563   -0.1454 H       1  UNL1        0.0615
      5 C           3.8092    0.8239    1.5933 C.2     1  UNL1       -0.0654
      6 H           4.8158    0.5305    1.8569 H       1  UNL1        0.0615
      7 C           2.6168    0.2412    2.0835 C.2     1  UNL1       -0.0763
      8 H           2.5513   -0.5563    2.8090 H       1  UNL1        0.0578
      9 C           1.5401    0.7642    1.3486 C.3     1  UNL1        0.0054
     10 H           0.5267    0.4053    1.3850 H       1  UNL1        0.0394
@<TRIPOS>BOND
     1     2     1    1
     2     4     3    1
     3     1     3    2
     4     1     9    1
     5     3     5    1
     6     9    10    1
     7     9     7    1
     8     5     6    1
     9     5     7    2
    10     7     8    1
