@<TRIPOS>MOLECULE
1,3,5,7,9
 10 10 0 0 0
SMALL
GASTEIGER

@<TRIPOS>ATOM
      1 C          -6.4581   -2.5278  -14.1447 C.2     1  UNL1       -0.0654
      2 H          -6.8098   -3.4390  -13.6769 H       1  UNL1        0.0615
      3 C          -5.1541   -2.3018  -14.6237 C.2     1  UNL1       -0.0763
      4 H          -4.3550   -3.0333  -14.6307 H       1  UNL1        0.0578
      5 C          -5.1446   -1.0598  -15.2947 C.3     1  UNL1        0.0054
      6 H          -4.3358   -0.6634  -15.8930 H       1  UNL1        0.0394
      7 C          -6.4556   -0.5269  -15.2332 C.2     1  UNL1       -0.0763
      8 H          -6.7968    0.3620  -15.7479 H       1  UNL1        0.0578
      9 C          -7.2631   -1.4475  -14.5477 C.2     1  UNL1       -0.0654
     10 H          -8.3369   -1.3883  -14.4352 H       1  UNL1        0.0615
@<TRIPOS>BOND
     1     6     5    1
     2     8     7    1
     3     5     7    1
     4     5     3    1
     5     7     9    2
     6     4     3    1
     7     3     1    2
     8     9    10    1
     9     9     1    1
    10     1     2    1
