@<TRIPOS>MOLECULE
1,3,5,7,9
 10 10 0 0 0
SMALL
GASTEIGER

@<TRIPOS>ATOM
      1 C          -6.1872   -0.9968  -10.9039 C.2     1  UNL1       -0.0763
      2 H          -5.7712   -1.7704  -10.2727 H       1  UNL1        0.0578
      3 C          -7.3776   -1.0972  -11.6428 C.2     1  UNL1       -0.0654
      4 H          -8.0044   -1.9768  -11.7095 H       1  UNL1        0.0615
      5 C          -7.6872    0.1784  -12.1526 C.2     1  UNL1       -0.0654
      6 H          -8.5898    0.4539  -12.6824 H       1  UNL1        0.0615
      7 C          -6.7016    1.0758  -11.7114 C.2     1  UNL1       -0.0763
      8 H          -6.7481    2.1519  -11.8220 H       1  UNL1        0.0578
      9 C          -5.7622    0.3524  -10.9432 C.3     1  UNL1        0.0054
     10 H          -4.9503    0.7678  -10.3595 H       1  UNL1        0.0394
@<TRIPOS>BOND
     1     6     5    1
     2     5     7    2
     3     5     3    1
     4     8     7    1
     5     7     9    1
     6     4     3    1
     7     3     1    2
     8     9     1    1
     9     9    10    1
    10     1     2    1
