@<TRIPOS>MOLECULE
1,3,5,7,9
 10 10 0 0 0
SMALL
GASTEIGER

@<TRIPOS>ATOM
      1 C           4.5272    6.3347    0.7269 C.2     1  UNL1       -0.0763
      2 H           4.5222    6.1273   -0.3368 H       1  UNL1        0.0578
      3 C           4.0501    5.4646    1.7284 C.3     1  UNL1        0.0054
      4 H           3.6099    4.4904    1.5583 H       1  UNL1        0.0394
      5 C           4.0998    6.1510    2.9629 C.2     1  UNL1       -0.0763
      6 H           3.6817    5.7972    3.8981 H       1  UNL1        0.0578
      7 C           4.5934    7.4491    2.7189 C.2     1  UNL1       -0.0654
      8 H           4.6293    8.2588    3.4380 H       1  UNL1        0.0615
      9 C           4.8627    7.5626    1.3405 C.2     1  UNL1       -0.0654
     10 H           5.1119    8.4841    0.8257 H       1  UNL1        0.0615
@<TRIPOS>BOND
     1     2     1    1
     2     1     9    2
     3     1     3    1
     4    10     9    1
     5     9     7    1
     6     4     3    1
     7     3     5    1
     8     7     5    2
     9     7     8    1
    10     5     6    1
