@<TRIPOS>MOLECULE
1,3,5,7,9
 10 10 0 0 0
SMALL
GASTEIGER

@<TRIPOS>ATOM
      1 C           7.6570    4.8737    4.2352 C.2     1  UNL1       -0.0763
      2 H           7.5858    3.8347    4.5315 H       1  UNL1        0.0578
      3 C           6.8472    5.9326    4.7105 C.3     1  UNL1        0.0054
      4 H           6.0504    5.8428    5.4411 H       1  UNL1        0.0394
      5 C           7.3899    7.1430    4.2325 C.2     1  UNL1       -0.0763
      6 H           7.0741    8.1396    4.5173 H       1  UNL1        0.0578
      7 C           8.5308    6.8359    3.4655 C.2     1  UNL1       -0.0654
      8 H           9.2477    7.5600    3.0971 H       1  UNL1        0.0615
      9 C           8.6941    5.4359    3.4598 C.2     1  UNL1       -0.0654
     10 H           9.5238    4.8886    3.0270 H       1  UNL1        0.0615
@<TRIPOS>BOND
     1    10     9    1
     2     8     7    1
     3     9     7    1
     4     9     1    2
     5     7     5    2
     6     5     6    1
     7     5     3    1
     8     1     2    1
     9     1     3    1
    10     3     4    1
