@<TRIPOS>MOLECULE
3,4,6,16,18
 19 19 0 0 0
SMALL
GASTEIGER

@<TRIPOS>ATOM
      1 CL          2.9633    4.1699   10.1780 Cl      1  UNL1        0.0000
      2 SI          1.1575    3.1622    9.9769 Si      1  UNL1        0.0000
      3 C           1.0508    2.6124   11.7793 C.3     1  UNL1        0.0000
      4 C           1.0734    3.5103   12.8846 C.3     1  UNL1        0.0000
      5 H           0.8932    4.5784   12.8320 H       1  UNL1        0.0000
      6 C           1.1926    1.3021   12.3077 C.2     1  UNL1        0.0000
      7 H           1.1345    0.3843   11.7351 H       1  UNL1        0.0000
      8 C           1.3709    1.6891    8.7932 C.3     1  UNL1        0.0000
      9 H           0.5023    1.0382    8.8005 H       1  UNL1        0.0000
     10 H           2.2419    1.0988    9.0715 H       1  UNL1        0.0000
     11 H           1.5160    2.0315    7.7733 H       1  UNL1        0.0000
     12 C          -0.2000    4.4000    9.4833 C.3     1  UNL1        0.0000
     13 H           0.0239    4.8387    8.5167 H       1  UNL1        0.0000
     14 H          -0.2870    5.2113   10.1999 H       1  UNL1        0.0000
     15 H          -1.1670    3.9146    9.4107 H       1  UNL1        0.0000
     16 C           1.2664    1.3917   13.7106 C.2     1  UNL1        0.0000
     17 H           1.3017    0.5586   14.4001 H       1  UNL1        0.0000
     18 C           1.2029    2.7560   14.0702 C.3     1  UNL1        0.0000
     19 H           1.1614    3.1431   15.0811 H       1  UNL1        0.0000
@<TRIPOS>BOND
     1    11     8    1
     2    13    12    1
     3     8     9    1
     4     8    10    1
     5     8     2    1
     6    15    12    1
     7    12     2    1
     8    12    14    1
     9     2     1    1
    10     2     3    1
    11     7     6    1
    12     3     6    1
    13     3     4    1
    14     6    16    2
    15     5     4    1
    16     4    18    1
    17    16    18    1
    18    16    17    1
    19    18    19    1
