@<TRIPOS>MOLECULE
1,2,3,4,5
 25 25 0 0 0
SMALL
GASTEIGER

@<TRIPOS>ATOM
      1 C           0.4316    4.0043    5.1912 C.3     1  UNL1        0.0052
      2 C           0.2925    4.8789    6.3235 C.2     1  UNL1       -0.0658
      3 C           1.4582    4.7618    7.1216 C.2     1  UNL1       -0.0658
      4 C           2.3040    3.7778    6.5101 C.3     1  UNL1        0.0052
      5 C           1.6511    3.2896    5.3360 C.3     1  UNL1       -0.0053
      6 C          -0.6574    3.6782    4.2104 C.3     1  UNL1       -0.0545
      7 C          -0.9552    5.6123    6.7107 C.3     1  UNL1       -0.0430
      8 C           1.6492    5.3578    8.4863 C.3     1  UNL1       -0.0430
      9 C           3.4915    3.1299    7.1585 C.3     1  UNL1       -0.0545
     10 C           2.0296    2.0518    4.5773 C.3     1  UNL1       -0.0574
     11 H          -1.2699    4.5524    3.9947 H       1  UNL1        0.0239
     12 H          -1.3081    2.9003    4.6168 H       1  UNL1        0.0239
     13 H          -0.2425    3.3163    3.2706 H       1  UNL1        0.0239
     14 H          -0.7262    6.5291    7.2507 H       1  UNL1        0.0275
     15 H          -1.5583    4.9763    7.3628 H       1  UNL1        0.0275
     16 H          -1.5541    5.8685    5.8395 H       1  UNL1        0.0275
     17 H           2.7056    5.4894    8.7151 H       1  UNL1        0.0275
     18 H           1.2155    4.7024    9.2457 H       1  UNL1        0.0275
     19 H           1.1634    6.3294    8.5604 H       1  UNL1        0.0275
     20 H           4.2229    2.8108    6.4178 H       1  UNL1        0.0239
     21 H           3.1651    2.2482    7.7149 H       1  UNL1        0.0239
     22 H           3.9829    3.8072    7.8542 H       1  UNL1        0.0239
     23 H           1.7108    2.1077    3.5384 H       1  UNL1        0.0236
     24 H           1.5448    1.1848    5.0330 H       1  UNL1        0.0236
     25 H           3.1042    1.8867    4.5932 H       1  UNL1        0.0236
@<TRIPOS>BOND
     1    13     6    1
     2    23    10    1
     3    11     6    1
     4     6    12    1
     5     6     1    1
     6    10    25    1
     7    10    24    1
     8    10     5    1
     9     1     5    1
    10     1     2    1
    11     5     4    1
    12    16     7    1
    13     2     7    1
    14     2     3    2
    15    20     9    1
    16     4     3    1
    17     4     9    1
    18     7    14    1
    19     7    15    1
    20     3     8    1
    21     9    21    1
    22     9    22    1
    23     8    19    1
    24     8    17    1
    25     8    18    1
