@<TRIPOS>MOLECULE
1,3,5,7,9
 10 10 0 0 0
SMALL
GASTEIGER

@<TRIPOS>ATOM
      1 C           2.6384    1.7488   -0.8396 C.3     1  UNL1       -0.0127
      2 H           3.1713    1.7738   -1.7829 H       1  UNL1        0.0352
      3 C           2.9053    2.5850    0.2735 C.3     1  UNL1       -0.0235
      4 H           3.6235    3.3923    0.3015 H       1  UNL1        0.0315
      5 C           2.1808    2.0834    1.3835 C.3     1  UNL1       -0.0127
      6 H           2.3101    2.4024    2.4114 H       1  UNL1        0.0352
      7 C           1.5526    0.8662    0.9791 C.2     1  UNL1       -0.0837
      8 H           1.0566    0.1661    1.6374 H       1  UNL1        0.0572
      9 C           1.8338    0.6614   -0.3828 C.2     1  UNL1       -0.0837
     10 H           1.5893   -0.2229   -0.9556 H       1  UNL1        0.0572
@<TRIPOS>BOND
     1     2     1    1
     2    10     9    1
     3     1     9    1
     4     1     3    1
     5     9     7    2
     6     3     4    1
     7     3     5    1
     8     7     5    1
     9     7     8    1
    10     5     6    1
