@<TRIPOS>MOLECULE
1,3,5,7,9
 10 10 0 0 0
SMALL
GASTEIGER

@<TRIPOS>ATOM
      1 C           6.9932   -0.0495    2.2541 C.2     1  UNL1       -0.0837
      2 H           6.4838   -0.9565    2.5486 H       1  UNL1        0.0572
      3 C           7.9806    0.6160    3.0083 C.2     1  UNL1       -0.0837
      4 H           8.3316    0.3268    3.9910 H       1  UNL1        0.0572
      5 C           8.5249    1.6399    2.2063 C.3     1  UNL1       -0.0127
      6 H           9.3840    2.2454    2.4604 H       1  UNL1        0.0352
      7 C           7.8619    1.6196    0.9606 C.3     1  UNL1       -0.0235
      8 H           8.1484    2.1843    0.0798 H       1  UNL1        0.0315
      9 C           6.9118    0.5742    0.9908 C.3     1  UNL1       -0.0127
     10 H           6.3515    0.2078    0.1371 H       1  UNL1        0.0352
@<TRIPOS>BOND
     1     8     7    1
     2    10     9    1
     3     7     9    1
     4     7     5    1
     5     9     1    1
     6     5     6    1
     7     5     3    1
     8     1     2    1
     9     1     3    2
    10     3     4    1
