@<TRIPOS>MOLECULE
1,3,5,7,9
 10 10 0 0 0
SMALL
GASTEIGER

@<TRIPOS>ATOM
      1 C           3.7224    2.9063    2.0501 C.2     1  UNL1       -0.0763
      2 H           2.8541    2.3363    2.3510 H       1  UNL1        0.0578
      3 C           4.2439    4.0235    2.7340 C.2     1  UNL1       -0.0654
      4 H           3.8629    4.4333    3.6610 H       1  UNL1        0.0615
      5 C           5.2562    4.5903    1.9338 C.2     1  UNL1       -0.0654
      6 H           5.7583    5.5279    2.1278 H       1  UNL1        0.0615
      7 C           5.3758    3.8129    0.7621 C.2     1  UNL1       -0.0763
      8 H           5.9637    4.0698   -0.1128 H       1  UNL1        0.0578
      9 C           4.4248    2.7704    0.8336 C.3     1  UNL1        0.0054
     10 H           4.1650    2.0987    0.0222 H       1  UNL1        0.0394
@<TRIPOS>BOND
     1     8     7    1
     2    10     9    1
     3     7     9    1
     4     7     5    2
     5     9     1    1
     6     5     6    1
     7     5     3    1
     8     1     2    1
     9     1     3    2
    10     3     4    1
