@<TRIPOS>MOLECULE
1,2,3,4,5
 10 10 0 0 0
SMALL
GASTEIGER

@<TRIPOS>ATOM
      1 C           5.9518    0.8797    2.2573 C.2     1  UNL1       -0.0763
      2 C           6.2217   -0.1766    1.3615 C.2     1  UNL1       -0.0654
      3 C           5.8011    0.2275    0.0737 C.2     1  UNL1       -0.0654
      4 C           5.2793    1.5330    0.1798 C.2     1  UNL1       -0.0763
      5 C           5.3881    1.9368    1.5239 C.3     1  UNL1        0.0054
      6 H           6.2256    0.9025    3.3044 H       1  UNL1        0.0578
      7 H           6.7514   -1.0907    1.6026 H       1  UNL1        0.0615
      8 H           5.9957   -0.3030   -0.8471 H       1  UNL1        0.0615
      9 H           4.9973    2.1675   -0.6490 H       1  UNL1        0.0578
     10 H           5.1828    2.9301    1.9006 H       1  UNL1        0.0394
@<TRIPOS>BOND
     1     8     3    1
     2     9     4    1
     3     3     4    2
     4     3     2    1
     5     4     5    1
     6     2     7    1
     7     2     1    2
     8     5    10    1
     9     5     1    1
    10     1     6    1
