@<TRIPOS>MOLECULE
1,3,5,7,9
 10 10 0 0 0
SMALL
GASTEIGER

@<TRIPOS>ATOM
      1 C           3.9093   11.5246   13.4635 C.3     1  UNL1       -0.0235
      2 H           4.7258   11.1414   12.8641 H       1  UNL1        0.0315
      3 C           4.0238   12.0611   14.7656 C.3     1  UNL1       -0.0127
      4 H           4.9389   12.1613   15.3366 H       1  UNL1        0.0352
      5 C           2.7696   12.6354   15.1059 C.2     1  UNL1       -0.0837
      6 H           2.5791   13.2414   15.9820 H       1  UNL1        0.0572
      7 C           1.8953   12.4832   14.0068 C.2     1  UNL1       -0.0837
      8 H           0.9163   12.9367   13.9177 H       1  UNL1        0.0572
      9 C           2.5851   11.7762   12.9959 C.3     1  UNL1       -0.0127
     10 H           2.2477   11.6158   11.9802 H       1  UNL1        0.0352
@<TRIPOS>BOND
     1    10     9    1
     2     2     1    1
     3     9     1    1
     4     9     7    1
     5     1     3    1
     6     8     7    1
     7     7     5    2
     8     3     5    1
     9     3     4    1
    10     5     6    1
