@<TRIPOS>MOLECULE
1,2,3,7,8
 10 10 0 0 0
SMALL
GASTEIGER

@<TRIPOS>ATOM
      1 C           2.5941    2.4522    5.8461 C.2     1  UNL1       -0.0763
      2 C           1.8089    3.5916    5.5998 C.3     1  UNL1        0.0054
      3 C           0.5212    3.1591    5.2039 C.2     1  UNL1       -0.0763
      4 H           3.5999    2.4522    6.2424 H       1  UNL1        0.0578
      5 H           2.1082    4.6093    5.8135 H       1  UNL1        0.0394
      6 H          -0.3595    3.7829    5.1075 H       1  UNL1        0.0578
      7 C           1.8090    1.3128    5.5997 C.2     1  UNL1       -0.0654
      8 C           0.5212    1.7453    5.2038 C.2     1  UNL1       -0.0654
      9 H          -0.3594    1.1215    5.1074 H       1  UNL1        0.0615
     10 H           2.1082    0.2951    5.8134 H       1  UNL1        0.0615
@<TRIPOS>BOND
     1     9     8    1
     2     6     3    1
     3     8     3    2
     4     8     7    1
     5     3     2    1
     6     7    10    1
     7     7     1    2
     8     2     5    1
     9     2     1    1
    10     1     4    1
