@<TRIPOS>MOLECULE
1,3,5,7,9
 10 10 0 0 0
SMALL
GASTEIGER

@<TRIPOS>ATOM
      1 C          14.5787   15.2300   15.1297 C.2     1  UNL1       -0.0654
      2 H          13.6108   15.2825   15.6113 H       1  UNL1        0.0615
      3 C          15.1025   16.1878   14.2457 C.2     1  UNL1       -0.0654
      4 H          14.5915   17.0825   13.9185 H       1  UNL1        0.0615
      5 C          16.4251   15.8290   13.9387 C.2     1  UNL1       -0.0763
      6 H          17.1276   16.4430   13.3859 H       1  UNL1        0.0578
      7 C          16.7395   14.6540   14.6740 C.3     1  UNL1        0.0054
      8 H          17.7227   14.2080   14.7829 H       1  UNL1        0.0394
      9 C          15.5934   14.2973   15.4157 C.2     1  UNL1       -0.0763
     10 H          15.5358   13.5037   16.1507 H       1  UNL1        0.0578
@<TRIPOS>BOND
     1     6     5    1
     2     4     3    1
     3     5     3    2
     4     5     7    1
     5     3     1    1
     6     7     8    1
     7     7     9    1
     8     1     9    2
     9     1     2    1
    10     9    10    1
