@<TRIPOS>MOLECULE
1,3,5,7,9
 10 10 0 0 0
SMALL
GASTEIGER

@<TRIPOS>ATOM
      1 C          15.8010   13.4205   10.4651 C.3     1  UNL1       -0.0235
      2 H          15.0615   13.4350    9.6748 H       1  UNL1        0.0315
      3 C          16.5969   14.5158   10.8777 C.3     1  UNL1       -0.0127
      4 H          16.5570   15.5178   10.4671 H       1  UNL1        0.0352
      5 C          17.5782   14.0202   11.7627 C.2     1  UNL1       -0.0837
      6 H          18.4210   14.5804   12.1484 H       1  UNL1        0.0572
      7 C          17.3880   12.6339   11.9035 C.2     1  UNL1       -0.0837
      8 H          18.0218   11.9553   12.4591 H       1  UNL1        0.0572
      9 C          16.2979   12.2605   11.0984 C.3     1  UNL1       -0.0127
     10 H          15.9730   11.2466   10.9047 H       1  UNL1        0.0352
@<TRIPOS>BOND
     1     2     1    1
     2     1     3    1
     3     1     9    1
     4     4     3    1
     5     3     5    1
     6    10     9    1
     7     9     7    1
     8     5     7    2
     9     5     6    1
    10     7     8    1
