@<TRIPOS>MOLECULE
1,3,5,7,9
 10 10 0 0 0
SMALL
GASTEIGER

@<TRIPOS>ATOM
      1 C           0.0237    7.9893    4.4353 C.3     1  UNL1        0.0054
      2 H           0.0146    7.8051    3.3653 H       1  UNL1        0.0394
      3 C           0.0067    6.9985    5.4465 C.2     1  UNL1       -0.0763
      4 H           0.0265    5.9275    5.2914 H       1  UNL1        0.0578
      5 C          -0.1515    7.6433    6.6849 C.2     1  UNL1       -0.0654
      6 H          -0.3128    7.1491    7.6352 H       1  UNL1        0.0615
      7 C          -0.2821    9.0314    6.4417 C.2     1  UNL1       -0.0654
      8 H          -0.5596    9.7824    7.1710 H       1  UNL1        0.0615
      9 C          -0.2024    9.2399    5.0563 C.2     1  UNL1       -0.0763
     10 H          -0.3772   10.1809    4.5532 H       1  UNL1        0.0578
@<TRIPOS>BOND
     1     2     1    1
     2     1     9    1
     3     1     3    1
     4    10     9    1
     5     9     7    2
     6     4     3    1
     7     3     5    2
     8     7     5    1
     9     7     8    1
    10     5     6    1
