@<TRIPOS>MOLECULE
1,3,5,7,9
 10 10 0 0 0
SMALL
GASTEIGER

@<TRIPOS>ATOM
      1 C           4.2101    8.8955    7.1242 C.3     1  UNL1        0.0054
      2 H           5.1768    9.0742    6.6615 H       1  UNL1        0.0394
      3 C           3.7746    7.6655    7.6700 C.2     1  UNL1       -0.0763
      4 H           4.3248    6.7347    7.6724 H       1  UNL1        0.0578
      5 C           2.5477    7.8821    8.3149 C.2     1  UNL1       -0.0654
      6 H           2.0153    7.1506    8.9096 H       1  UNL1        0.0615
      7 C           2.2378    9.2577    8.2161 C.2     1  UNL1       -0.0654
      8 H           1.4380    9.7641    8.7423 H       1  UNL1        0.0615
      9 C           3.2723    9.8882    7.5042 C.2     1  UNL1       -0.0763
     10 H           3.3757   10.9557    7.3586 H       1  UNL1        0.0578
@<TRIPOS>BOND
     1     2     1    1
     2     1     9    1
     3     1     3    1
     4    10     9    1
     5     9     7    2
     6     3     4    1
     7     3     5    2
     8     7     5    1
     9     7     8    1
    10     5     6    1
