@<TRIPOS>MOLECULE
1,2,3,4,5
 25 25 0 0 0
SMALL
GASTEIGER

@<TRIPOS>ATOM
      1 C           3.6995   -0.2947    4.2053 C.2     1  UNL1       -0.0584
      2 C           4.6428    0.7591    4.0546 C.2     1  UNL1       -0.0477
      3 C           4.0193    1.9686    4.4656 C.2     1  UNL1       -0.0477
      4 C           2.6922    1.6580    4.8739 C.2     1  UNL1       -0.0584
      5 C           2.5111    0.2532    4.7690 C.3     1  UNL1        0.0231
      6 C           4.0434   -1.7477    4.0252 C.3     1  UNL1       -0.0424
      7 C           6.0906    0.6013    3.6971 C.3     1  UNL1       -0.0395
      8 C           4.7176    3.2739    4.7105 C.3     1  UNL1       -0.0395
      9 C           1.7779    2.6412    5.5495 C.3     1  UNL1       -0.0424
     10 C           1.4579   -0.5216    5.5066 C.3     1  UNL1       -0.0510
     11 H           3.2035   -2.3908    4.2802 H       1  UNL1        0.0275
     12 H           4.3474   -1.9554    2.9948 H       1  UNL1        0.0275
     13 H           4.8758   -2.0149    4.6806 H       1  UNL1        0.0275
     14 H           6.2640   -0.3472    3.1915 H       1  UNL1        0.0278
     15 H           6.7048    0.6344    4.6007 H       1  UNL1        0.0278
     16 H           6.4134    1.4035    3.0326 H       1  UNL1        0.0278
     17 H           5.1144    3.2853    5.7301 H       1  UNL1        0.0278
     18 H           4.0371    4.1178    4.6048 H       1  UNL1        0.0278
     19 H           5.5489    3.4091    4.0221 H       1  UNL1        0.0278
     20 H           2.2509    3.0210    6.4585 H       1  UNL1        0.0275
     21 H           0.8367    2.1757    5.8339 H       1  UNL1        0.0275
     22 H           1.5668    3.4992    4.9047 H       1  UNL1        0.0275
     23 H           0.4739   -0.0661    5.4294 H       1  UNL1        0.0242
     24 H           1.3942   -1.5504    5.1636 H       1  UNL1        0.0242
     25 H           1.7256   -0.5444    6.5673 H       1  UNL1        0.0242
@<TRIPOS>BOND
     1    12     6    1
     2    16     7    1
     3    14     7    1
     4     7     2    1
     5     7    15    1
     6    19     8    1
     7     6     1    1
     8     6    11    1
     9     6    13    1
    10     2     1    2
    11     2     3    1
    12     1     5    1
    13     3     8    1
    14     3     4    2
    15    18     8    1
    16     8    17    1
    17     5     4    1
    18     5    10    1
    19     4     9    1
    20    22     9    1
    21    24    10    1
    22    23    10    1
    23    10    25    1
    24     9    21    1
    25     9    20    1
