@<TRIPOS>MOLECULE
1,2,3,4,5
 25 25 0 0 0
SMALL
GASTEIGER

@<TRIPOS>ATOM
      1 C           1.9192    1.2415    0.4416 C.2     1  UNL1       -0.0584
      2 C           1.0984    1.9118    1.3846 C.3     1  UNL1        0.0231
      3 C           0.6119    0.9393    2.3121 C.2     1  UNL1       -0.0584
      4 C           1.2038   -0.3099    1.9890 C.2     1  UNL1       -0.0477
      5 C           2.0571   -0.1025    0.8634 C.2     1  UNL1       -0.0477
      6 C           2.5250    1.7986   -0.8082 C.3     1  UNL1       -0.0424
      7 C           0.5670    3.3131    1.2823 C.3     1  UNL1       -0.0510
      8 C          -0.5907    1.1880    3.1769 C.3     1  UNL1       -0.0424
      9 C           0.7408   -1.6694    2.4293 C.3     1  UNL1       -0.0395
     10 C           2.8464   -1.1478    0.1290 C.3     1  UNL1       -0.0395
     11 H           3.6033    1.6301   -0.8183 H       1  UNL1        0.0275
     12 H           2.3406    2.8669   -0.8946 H       1  UNL1        0.0275
     13 H           2.0945    1.2992   -1.6788 H       1  UNL1        0.0275
     14 H           1.2191    3.9385    0.6746 H       1  UNL1        0.0242
     15 H           0.4699    3.7690    2.2698 H       1  UNL1        0.0242
     16 H          -0.4248    3.3054    0.8208 H       1  UNL1        0.0242
     17 H          -0.4426    2.0246    3.8601 H       1  UNL1        0.0275
     18 H          -0.8620    0.3073    3.7537 H       1  UNL1        0.0275
     19 H          -1.4419    1.4369    2.5369 H       1  UNL1        0.0275
     20 H           0.0726   -1.6084    3.2839 H       1  UNL1        0.0278
     21 H           1.5706   -2.3295    2.6794 H       1  UNL1        0.0278
     22 H           0.1872   -2.1349    1.6090 H       1  UNL1        0.0278
     23 H           2.8390   -2.0954    0.6660 H       1  UNL1        0.0278
     24 H           3.8818   -0.8181    0.0032 H       1  UNL1        0.0278
     25 H           2.4227   -1.3152   -0.8643 H       1  UNL1        0.0278
@<TRIPOS>BOND
     1    13     6    1
     2    12     6    1
     3    25    10    1
     4    11     6    1
     5     6     1    1
     6    24    10    1
     7    10    23    1
     8    10     5    1
     9     1     5    2
    10     1     2    1
    11    14     7    1
    12    16     7    1
    13     5     4    1
    14     7     2    1
    15     7    15    1
    16     2     3    1
    17    22     9    1
    18     4     3    2
    19     4     9    1
    20     3     8    1
    21     9    21    1
    22     9    20    1
    23    19     8    1
    24     8    18    1
    25     8    17    1
