@<TRIPOS>MOLECULE
1,2,3,4,5
 25 25 0 0 0
SMALL
GASTEIGER

@<TRIPOS>ATOM
      1 C          -1.1582    4.8356    1.1005 C.2     1  UNL1       -0.0584
      2 C          -1.1605    5.5198    2.3498 C.3     1  UNL1        0.0231
      3 C           0.1201    6.0959    2.5399 C.2     1  UNL1       -0.0584
      4 C           0.9396    5.6988    1.4548 C.2     1  UNL1       -0.0477
      5 C           0.1371    4.9666    0.5363 C.2     1  UNL1       -0.0477
      6 C          -2.4236    4.4510    0.3868 C.3     1  UNL1       -0.0424
      7 C          -2.3944    5.8654    3.1323 C.3     1  UNL1       -0.0510
      8 C           0.4699    7.1445    3.5559 C.3     1  UNL1       -0.0424
      9 C           2.3077    6.2267    1.1300 C.3     1  UNL1       -0.0395
     10 C           0.5237    4.8315   -0.9077 C.3     1  UNL1       -0.0395
     11 H          -2.2207    3.9057   -0.5306 H       1  UNL1        0.0275
     12 H          -2.9712    5.3583    0.1159 H       1  UNL1        0.0275
     13 H          -3.0785    3.8463    1.0135 H       1  UNL1        0.0275
     14 H          -2.2184    5.8319    4.2059 H       1  UNL1        0.0242
     15 H          -3.2092    5.1829    2.9031 H       1  UNL1        0.0242
     16 H          -2.7208    6.8764    2.8733 H       1  UNL1        0.0242
     17 H          -0.3035    7.2289    4.3165 H       1  UNL1        0.0275
     18 H           0.5547    8.1130    3.0563 H       1  UNL1        0.0275
     19 H           1.4214    6.9471    4.0504 H       1  UNL1        0.0275
     20 H           2.2395    6.9570    0.3189 H       1  UNL1        0.0278
     21 H           2.7545    6.7229    1.9887 H       1  UNL1        0.0278
     22 H           2.9752    5.4279    0.8034 H       1  UNL1        0.0278
     23 H           0.6519    5.8346   -1.3257 H       1  UNL1        0.0278
     24 H          -0.2444    4.3321   -1.4888 H       1  UNL1        0.0278
     25 H           1.4687    4.3069   -1.0347 H       1  UNL1        0.0278
@<TRIPOS>BOND
     1    24    10    1
     2    23    10    1
     3    25    10    1
     4    10     5    1
     5    11     6    1
     6    12     6    1
     7    20     9    1
     8     6    13    1
     9     6     1    1
    10     5     1    2
    11     5     4    1
    12    22     9    1
    13     1     2    1
    14     9     4    1
    15     9    21    1
    16     4     3    2
    17     2     3    1
    18     2     7    1
    19     3     8    1
    20    16     7    1
    21    15     7    1
    22    18     8    1
    23     7    14    1
    24     8    19    1
    25     8    17    1
