@<TRIPOS>MOLECULE
2,3,4,5,6
 34 34 0 0 0
SMALL
GASTEIGER

@<TRIPOS>ATOM
      1 SI          1.3114    1.1734    2.4144 Si      1  UNL1        0.0000
      2 C          -1.1594   -0.3098    3.0668 C.2     1  UNL1        0.0000
      3 C          -2.5612   -0.2080    2.8408 C.2     1  UNL1        0.0000
      4 C          -2.8243    1.0883    2.3403 C.2     1  UNL1        0.0000
      5 C          -1.5980    1.7997    2.2818 C.2     1  UNL1        0.0000
      6 C          -0.5440    0.9303    2.7071 C.3     1  UNL1        0.0000
      7 C           2.3308    0.7158    3.9729 C.3     1  UNL1        0.0000
      8 C           1.8814    2.9006    1.8345 C.3     1  UNL1        0.0000
      9 C           1.7931   -0.0181    0.9886 C.3     1  UNL1        0.0000
     10 C          -0.4204   -1.6083    3.1919 C.3     1  UNL1        0.0000
     11 C          -3.5346   -1.3477    2.7505 C.3     1  UNL1        0.0000
     12 C          -4.1201    1.5694    1.7625 C.3     1  UNL1        0.0000
     13 C          -1.4641    3.1581    1.6655 C.3     1  UNL1        0.0000
     14 H           3.2505    1.2911    4.0007 H       1  UNL1        0.0000
     15 H           1.7781    0.9456    4.8793 H       1  UNL1        0.0000
     16 H           2.6112   -0.3338    3.9909 H       1  UNL1        0.0000
     17 H           1.4239    3.1900    0.8945 H       1  UNL1        0.0000
     18 H           2.9565    2.8838    1.6797 H       1  UNL1        0.0000
     19 H           1.6698    3.6684    2.5701 H       1  UNL1        0.0000
     20 H           2.7835    0.2281    0.6210 H       1  UNL1        0.0000
     21 H           1.1054    0.0606    0.1525 H       1  UNL1        0.0000
     22 H           1.8134   -1.0564    1.2997 H       1  UNL1        0.0000
     23 H          -0.3190   -2.0472    2.1961 H       1  UNL1        0.0000
     24 H           0.5765   -1.4587    3.5943 H       1  UNL1        0.0000
     25 H          -0.9479   -2.3304    3.8105 H       1  UNL1        0.0000
     26 H          -3.7754   -1.5201    1.6986 H       1  UNL1        0.0000
     27 H          -4.4669   -1.1366    3.2715 H       1  UNL1        0.0000
     28 H          -3.1139   -2.2675    3.1453 H       1  UNL1        0.0000
     29 H          -4.4680    2.4745    2.2625 H       1  UNL1        0.0000
     30 H          -4.8928    0.8084    1.8436 H       1  UNL1        0.0000
     31 H          -3.9789    1.8063    0.7062 H       1  UNL1        0.0000
     32 H          -1.2731    3.0637    0.5937 H       1  UNL1        0.0000
     33 H          -0.6467    3.7163    2.1142 H       1  UNL1        0.0000
     34 H          -2.3843    3.7266    1.8001 H       1  UNL1        0.0000
@<TRIPOS>BOND
     1    21     9    1
     2    32    13    1
     3    20     9    1
     4    31    12    1
     5    17     8    1
     6     9    22    1
     7     9     1    1
     8    13    34    1
     9    13    33    1
    10    13     5    1
    11    18     8    1
    12    26    11    1
    13    12    30    1
    14    12    29    1
    15    12     4    1
    16     8     1    1
    17     8    19    1
    18    23    10    1
    19     5     4    2
    20     5     6    1
    21     4     3    1
    22     1     6    1
    23     1     7    1
    24     6     2    1
    25    11     3    1
    26    11    28    1
    27    11    27    1
    28     3     2    2
    29     2    10    1
    30    10    24    1
    31    10    25    1
    32     7    16    1
    33     7    14    1
    34     7    15    1
