@<TRIPOS>MOLECULE
1,2,3,8,9
 34 34 0 0 0
SMALL
GASTEIGER

@<TRIPOS>ATOM
      1 C          -2.2533   -0.3098    6.0899 C.2     1  UNL1        0.0000
      2 C          -0.8514   -0.2080    6.3159 C.2     1  UNL1        0.0000
      3 C          -0.5884    1.0882    6.8165 C.2     1  UNL1        0.0000
      4 C           0.1219   -1.3477    6.4063 C.3     1  UNL1        0.0000
      5 H           0.3628   -1.5201    7.4581 H       1  UNL1        0.0000
      6 H           1.0542   -1.1366    5.8851 H       1  UNL1        0.0000
      7 H          -0.2988   -2.2675    6.0115 H       1  UNL1        0.0000
      8 C          -1.8147    1.7996    6.8750 C.2     1  UNL1        0.0000
      9 C          -2.8686    0.9303    6.4496 C.3     1  UNL1        0.0000
     10 SI         -4.7240    1.1734    6.7424 Si      1  UNL1        0.0000
     11 C          -5.7433    0.7158    5.1838 C.3     1  UNL1        0.0000
     12 H          -6.6632    1.2908    5.1561 H       1  UNL1        0.0000
     13 H          -5.1908    0.9459    4.2774 H       1  UNL1        0.0000
     14 H          -6.0234   -0.3339    5.1656 H       1  UNL1        0.0000
     15 C          -5.2941    2.9007    7.3221 C.3     1  UNL1        0.0000
     16 H          -4.8366    3.1901    8.2621 H       1  UNL1        0.0000
     17 H          -6.3692    2.8838    7.4769 H       1  UNL1        0.0000
     18 H          -5.0824    3.6684    6.5865 H       1  UNL1        0.0000
     19 C          -5.2058   -0.0181    8.1681 C.3     1  UNL1        0.0000
     20 H          -6.1962    0.2280    8.5356 H       1  UNL1        0.0000
     21 H          -4.5182    0.0608    9.0043 H       1  UNL1        0.0000
     22 H          -5.2260   -1.0565    7.8571 H       1  UNL1        0.0000
     23 C          -2.9923   -1.6083    5.9648 C.3     1  UNL1        0.0000
     24 H          -3.0936   -2.0472    6.9607 H       1  UNL1        0.0000
     25 H          -3.9891   -1.4587    5.5625 H       1  UNL1        0.0000
     26 H          -2.4648   -2.3304    5.3462 H       1  UNL1        0.0000
     27 C          -1.9485    3.1580    7.4913 C.3     1  UNL1        0.0000
     28 H          -2.1395    3.0636    8.5631 H       1  UNL1        0.0000
     29 H          -2.7659    3.7163    7.0426 H       1  UNL1        0.0000
     30 H          -1.0283    3.7265    7.3567 H       1  UNL1        0.0000
     31 C           0.7075    1.5693    7.3943 C.3     1  UNL1        0.0000
     32 H           1.0553    2.4745    6.8944 H       1  UNL1        0.0000
     33 H           1.4802    0.8084    7.3130 H       1  UNL1        0.0000
     34 H           0.5664    1.8060    8.4506 H       1  UNL1        0.0000
@<TRIPOS>BOND
     1    13    11    1
     2    12    11    1
     3    14    11    1
     4    11    10    1
     5    26    23    1
     6    25    23    1
     7     6     4    1
     8    23     1    1
     9    23    24    1
    10     7     4    1
    11     1     2    2
    12     1     9    1
    13     2     4    1
    14     2     3    1
    15     4     5    1
    16     9    10    1
    17     9     8    1
    18    18    15    1
    19    10    15    1
    20    10    19    1
    21     3     8    2
    22     3    31    1
    23     8    27    1
    24    32    31    1
    25    29    27    1
    26    33    31    1
    27    15    17    1
    28    15    16    1
    29    30    27    1
    30    31    34    1
    31    27    28    1
    32    22    19    1
    33    19    20    1
    34    19    21    1
