@<TRIPOS>MOLECULE
3,5,7,9,11
 37 37 0 0 0
SMALL
GASTEIGER

@<TRIPOS>ATOM
      1 N           2.6282    2.3079    2.0753 N.4     1  UNL1        0.3829
      2 H           3.4020    2.7418    1.5587 H       1  UNL1       -0.0811
      3 C          -0.4828    5.5259    1.7943 C.2     1  UNL1       -0.0732
      4 H          -0.9877    4.6567    2.1933 H       1  UNL1        0.0581
      5 C          -1.0562    6.8091    1.6727 C.3     1  UNL1        0.0057
      6 H          -2.0816    7.0566    1.9077 H       1  UNL1        0.0394
      7 C          -0.1436    7.6288    0.9659 C.2     1  UNL1       -0.0761
      8 H          -0.3491    8.6160    0.5766 H       1  UNL1        0.0578
      9 C           1.0032    6.8644    0.6955 C.2     1  UNL1       -0.0623
     10 H           1.8557    7.1805    0.1084 H       1  UNL1        0.0617
     11 C           0.7987    5.5560    1.2035 C.2     1  UNL1       -0.0527
     12 C           1.7680    4.4169    1.0212 C.3     1  UNL1       -0.0428
     13 H           2.7722    4.8128    1.2083 H       1  UNL1        0.0295
     14 H           1.7222    4.0838   -0.0212 H       1  UNL1        0.0295
     15 C           1.4807    3.2602    1.9786 C.3     1  UNL1       -0.0859
     16 H           1.2733    3.6737    2.9694 H       1  UNL1        0.0062
     17 H           0.5978    2.7152    1.6519 H       1  UNL1        0.0062
     18 C           2.3644    0.9961    1.3822 C.3     1  UNL1       -0.0835
     19 H           3.2842    0.4149    1.4760 H       1  UNL1        0.0089
     20 C           2.1174    1.2264   -0.1035 C.3     1  UNL1       -0.0777
     21 H           1.1733    1.7288   -0.2921 H       1  UNL1        0.0214
     22 H           2.0798    0.2636   -0.6057 H       1  UNL1        0.0214
     23 H           2.9235    1.8011   -0.5548 H       1  UNL1        0.0214
     24 C           1.2252    0.2192    2.0276 C.3     1  UNL1       -0.0777
     25 H           1.1961   -0.7770    1.5948 H       1  UNL1        0.0214
     26 H           0.2579    0.6792    1.8483 H       1  UNL1        0.0214
     27 H           1.3636    0.1119    3.0988 H       1  UNL1        0.0214
     28 C           3.1354    2.1921    3.4964 C.3     1  UNL1       -0.0835
     29 H           2.2654    2.0048    4.1301 H       1  UNL1        0.0089
     30 C           3.7863    3.5113    3.8885 C.3     1  UNL1       -0.0777
     31 H           3.1154    4.3617    3.8040 H       1  UNL1        0.0214
     32 H           4.6710    3.7012    3.2840 H       1  UNL1        0.0214
     33 H           4.1002    3.4579    4.9265 H       1  UNL1        0.0214
     34 C           4.1504    1.0670    3.6611 C.3     1  UNL1       -0.0777
     35 H           3.7132    0.0776    3.5667 H       1  UNL1        0.0214
     36 H           4.5706    1.1348    4.6608 H       1  UNL1        0.0214
     37 H           4.9728    1.1698    2.9560 H       1  UNL1        0.0214
@<TRIPOS>BOND
     1    22    20    1
     2    23    20    1
     3    21    20    1
     4    20    18    1
     5    14    12    1
     6    10     9    1
     7     8     7    1
     8     9     7    2
     9     9    11    1
    10     7     5    1
    11    12    11    1
    12    12    13    1
    13    12    15    1
    14    11     3    2
    15    18    19    1
    16    18    24    1
    17    18     1    1
    18     2     1    1
    19    25    24    1
    20    17    15    1
    21     5     3    1
    22     5     6    1
    23     3     4    1
    24    26    24    1
    25    15     1    1
    26    15    16    1
    27    24    27    1
    28     1    28    1
    29    37    34    1
    30    32    30    1
    31    28    34    1
    32    28    30    1
    33    28    29    1
    34    35    34    1
    35    34    36    1
    36    31    30    1
    37    30    33    1
