@<TRIPOS>MOLECULE
2,4,6,8,10
 22 22 0 0 0
SMALL
GASTEIGER

@<TRIPOS>ATOM
      1 SI         -1.6219    7.6494    5.8643 Si      1  UNL1        0.0000
      2 C           1.1444    8.3229    4.9912 C.2     1  UNL1        0.0000
      3 H           1.6182    7.9248    5.8818 H       1  UNL1        0.0000
      4 C           1.7850    9.1033    4.0063 C.2     1  UNL1        0.0000
      5 H           2.8287    9.3929    4.0026 H       1  UNL1        0.0000
      6 C           0.8105    9.5156    3.0786 C.2     1  UNL1        0.0000
      7 H           0.9801   10.1986    2.2562 H       1  UNL1        0.0000
      8 C          -0.4418    9.0360    3.5264 C.2     1  UNL1        0.0000
      9 H          -1.4014    9.3081    3.1088 H       1  UNL1        0.0000
     10 C          -0.2534    8.2811    4.7081 C.3     1  UNL1        0.0000
     11 C          -2.7024    6.3900    4.9114 C.3     1  UNL1        0.0000
     12 H          -3.2797    6.8699    4.1256 H       1  UNL1        0.0000
     13 H          -3.4126    5.9215    5.5850 H       1  UNL1        0.0000
     14 H          -2.1057    5.5982    4.4628 H       1  UNL1        0.0000
     15 C          -0.8180    6.8572    7.3983 C.3     1  UNL1        0.0000
     16 H          -0.2217    7.5783    7.9501 H       1  UNL1        0.0000
     17 H          -0.1764    6.0198    7.1387 H       1  UNL1        0.0000
     18 H          -1.5815    6.4857    8.0742 H       1  UNL1        0.0000
     19 C          -2.6575    9.1767    6.3334 C.3     1  UNL1        0.0000
     20 H          -2.0557    9.9307    6.8304 H       1  UNL1        0.0000
     21 H          -3.4544    8.8942    7.0123 H       1  UNL1        0.0000
     22 H          -3.1163    9.6419    5.4668 H       1  UNL1        0.0000
@<TRIPOS>BOND
     1     7     6    1
     2     6     8    2
     3     6     4    1
     4     9     8    1
     5     8    10    1
     6     5     4    1
     7     4     2    2
     8    12    11    1
     9    14    11    1
    10    10     2    1
    11    10     1    1
    12    11    13    1
    13    11     1    1
    14     2     3    1
    15    22    19    1
    16     1    19    1
    17     1    15    1
    18    19    20    1
    19    19    21    1
    20    17    15    1
    21    15    16    1
    22    15    18    1
