@<TRIPOS>MOLECULE
1,2,3,4,5
 22 22 0 0 0
SMALL
GASTEIGER

@<TRIPOS>ATOM
      1 C           6.8275   -1.3286    3.2852 C.2     1  UNL1        0.0000
      2 C           5.8219   -0.8454    2.4126 C.2     1  UNL1        0.0000
      3 C           6.4024    0.0817    1.5206 C.2     1  UNL1        0.0000
      4 C           7.7728    0.1802    1.8359 C.2     1  UNL1        0.0000
      5 C           8.0292   -0.6885    2.9110 C.3     1  UNL1        0.0000
      6 SI          6.6816   -2.7260    4.5427 Si      1  UNL1        0.0000
      7 C           4.8798   -3.3333    4.6769 C.3     1  UNL1        0.0000
      8 C           7.7740   -4.1563    3.8892 C.3     1  UNL1        0.0000
      9 C           7.3755   -2.1807    6.2399 C.3     1  UNL1        0.0000
     10 H           4.8022   -1.2110    2.3735 H       1  UNL1        0.0000
     11 H           5.9195    0.5161    0.6572 H       1  UNL1        0.0000
     12 H           8.5194    0.7160    1.2639 H       1  UNL1        0.0000
     13 H           9.0069   -0.9455    3.2960 H       1  UNL1        0.0000
     14 H           4.2181   -2.5334    4.9923 H       1  UNL1        0.0000
     15 H           4.7999   -4.1365    5.4023 H       1  UNL1        0.0000
     16 H           4.5189   -3.7143    3.7260 H       1  UNL1        0.0000
     17 H           8.8186   -3.8694    3.8237 H       1  UNL1        0.0000
     18 H           7.4609   -4.4781    2.9011 H       1  UNL1        0.0000
     19 H           7.7113   -5.0145    4.5496 H       1  UNL1        0.0000
     20 H           6.7302   -1.4416    6.7055 H       1  UNL1        0.0000
     21 H           8.3694   -1.7497    6.1426 H       1  UNL1        0.0000
     22 H           7.4524   -3.0267    6.9161 H       1  UNL1        0.0000
@<TRIPOS>BOND
     1    11     3    1
     2    12     4    1
     3     3     4    2
     4     3     2    1
     5     4     5    1
     6    10     2    1
     7     2     1    2
     8    18     8    1
     9     5     1    1
    10     5    13    1
    11     1     6    1
    12    16     7    1
    13    17     8    1
    14     8     6    1
    15     8    19    1
    16     6     7    1
    17     6     9    1
    18     7    14    1
    19     7    15    1
    20    21     9    1
    21     9    20    1
    22     9    22    1
