@<TRIPOS>MOLECULE
1,2,3,4,5
 22 22 0 0 0
SMALL
GASTEIGER

@<TRIPOS>ATOM
      1 C           6.8346    2.5415    5.3994 C.3     1  UNL1        0.0000
      2 C           7.8097    1.5270    5.5904 C.2     1  UNL1        0.0000
      3 C           8.7291    1.5750    4.5312 C.2     1  UNL1        0.0000
      4 C           8.3158    2.5838    3.6406 C.2     1  UNL1        0.0000
      5 C           7.1596    3.1846    4.1753 C.2     1  UNL1        0.0000
      6 SI          5.6539    3.1645    6.7337 Si      1  UNL1        0.0000
      7 C           5.7218    1.9819    8.2315 C.3     1  UNL1        0.0000
      8 C           6.3349    4.8798    7.2489 C.3     1  UNL1        0.0000
      9 C           3.8386    3.4025    6.1842 C.3     1  UNL1        0.0000
     10 H           7.8958    0.9100    6.4752 H       1  UNL1        0.0000
     11 H           9.6575    1.0224    4.4691 H       1  UNL1        0.0000
     12 H           8.8700    2.9280    2.7779 H       1  UNL1        0.0000
     13 H           6.6955    4.0883    3.8087 H       1  UNL1        0.0000
     14 H           5.0625    2.3265    9.0216 H       1  UNL1        0.0000
     15 H           6.7227    1.9174    8.6479 H       1  UNL1        0.0000
     16 H           5.4062    0.9820    7.9509 H       1  UNL1        0.0000
     17 H           5.7511    5.2939    8.0638 H       1  UNL1        0.0000
     18 H           6.2990    5.5882    6.4273 H       1  UNL1        0.0000
     19 H           7.3662    4.8174    7.5812 H       1  UNL1        0.0000
     20 H           3.2455    3.7686    7.0171 H       1  UNL1        0.0000
     21 H           3.3975    2.4666    5.8539 H       1  UNL1        0.0000
     22 H           3.7473    4.1272    5.3796 H       1  UNL1        0.0000
@<TRIPOS>BOND
     1    12     4    1
     2     4     5    2
     3     4     3    1
     4    13     5    1
     5     5     1    1
     6    11     3    1
     7     3     2    2
     8    22     9    1
     9     1     2    1
    10     1     6    1
    11     2    10    1
    12    21     9    1
    13     9     6    1
    14     9    20    1
    15    18     8    1
    16     6     8    1
    17     6     7    1
    18     8    19    1
    19     8    17    1
    20    16     7    1
    21     7    15    1
    22     7    14    1
