@<TRIPOS>MOLECULE
1,2,3,4,5
 10 10 0 0 0
SMALL
GASTEIGER

@<TRIPOS>ATOM
      1 C           5.8212    6.1080    7.9969 C.2     1  UNL1       -0.0763
      2 C           6.9872    6.8584    8.2570 C.2     1  UNL1       -0.0654
      3 C           8.0051    5.9615    8.6420 C.2     1  UNL1       -0.0654
      4 C           7.4658    4.6608    8.6588 C.2     1  UNL1       -0.0763
      5 C           6.1094    4.7489    8.2600 C.3     1  UNL1        0.0054
      6 H           7.1098    7.9176    8.0626 H       1  UNL1        0.0615
      7 H           5.4648    3.9114    8.0190 H       1  UNL1        0.0394
      8 H           4.8995    6.4962    7.5817 H       1  UNL1        0.0578
      9 H           9.0515    6.2102    8.7666 H       1  UNL1        0.0615
     10 H           8.0325    3.7453    8.7794 H       1  UNL1        0.0578
@<TRIPOS>BOND
     1     8     1    1
     2     1     2    2
     3     1     5    1
     4     7     5    1
     5     6     2    1
     6     2     3    1
     7     5     4    1
     8     3     4    2
     9     3     9    1
    10     4    10    1
