@<TRIPOS>MOLECULE
1,2,3,4,5
 10 10 0 0 0
SMALL
GASTEIGER

@<TRIPOS>ATOM
      1 C           6.6132    6.3252   12.9771 C.2     1  UNL1       -0.0763
      2 C           7.0578    7.4711   12.2879 C.2     1  UNL1       -0.0654
      3 C           8.1418    7.0980   11.4675 C.2     1  UNL1       -0.0654
      4 C           8.3824    5.7175   11.6656 C.2     1  UNL1       -0.0763
      5 C           7.4334    5.2413   12.5940 C.3     1  UNL1        0.0054
      6 H           9.2370    5.1614   11.2971 H       1  UNL1        0.0578
      7 H           8.7733    7.7849   10.9151 H       1  UNL1        0.0615
      8 H           7.4512    4.2745   13.0785 H       1  UNL1        0.0394
      9 H           6.7021    8.4832   12.4369 H       1  UNL1        0.0615
     10 H           5.8741    6.2983   13.7688 H       1  UNL1        0.0578
@<TRIPOS>BOND
     1     7     3    1
     2     6     4    1
     3     3     4    2
     4     3     2    1
     5     4     5    1
     6     2     9    1
     7     2     1    2
     8     5     1    1
     9     5     8    1
    10     1    10    1
