@<TRIPOS>MOLECULE
1,3,5,7,9
 10 10 0 0 0
SMALL
GASTEIGER

@<TRIPOS>ATOM
      1 C          -4.9359   13.5372   10.1937 C.2     1  UNL1       -0.0654
      2 H          -5.2169   13.5214   11.2383 H       1  UNL1        0.0615
      3 C          -5.7971   13.2350    9.1213 C.2     1  UNL1       -0.0654
      4 H          -6.8269   12.9153    9.2204 H       1  UNL1        0.0615
      5 C          -5.1542   13.6045    7.9228 C.2     1  UNL1       -0.0763
      6 H          -5.5934   13.5928    6.9316 H       1  UNL1        0.0578
      7 C          -3.9027   14.1670    8.2571 C.3     1  UNL1        0.0054
      8 H          -3.2384   14.6631    7.5601 H       1  UNL1        0.0394
      9 C          -3.7588   14.1137    9.6621 C.2     1  UNL1       -0.0763
     10 H          -2.9576   14.5618   10.2388 H       1  UNL1        0.0578
@<TRIPOS>BOND
     1     6     5    1
     2     8     7    1
     3     5     7    1
     4     5     3    2
     5     7     9    1
     6     3     4    1
     7     3     1    1
     8     9     1    2
     9     9    10    1
    10     1     2    1
