@<TRIPOS>MOLECULE
1,3,5,7,9
 10 10 0 0 0
SMALL
GASTEIGER

@<TRIPOS>ATOM
      1 C          -5.4509    9.9716    9.3930 C.2     1  UNL1       -0.0763
      2 H          -6.1043    9.9763   10.2593 H       1  UNL1        0.0578
      3 C          -5.7975   10.4184    8.1001 C.2     1  UNL1       -0.0654
      4 H          -6.7535   10.8330    7.8067 H       1  UNL1        0.0615
      5 C          -4.7654   10.0531    7.2158 C.2     1  UNL1       -0.0654
      6 H          -4.7801   10.1752    6.1396 H       1  UNL1        0.0615
      7 C          -3.7843    9.3563    7.9529 C.2     1  UNL1       -0.0763
      8 H          -2.9268    8.8465    7.5328 H       1  UNL1        0.0578
      9 C          -4.2046    9.3075    9.3002 C.3     1  UNL1        0.0054
     10 H          -3.7375    8.7239   10.0850 H       1  UNL1        0.0394
@<TRIPOS>BOND
     1     6     5    1
     2     5     7    2
     3     5     3    1
     4     8     7    1
     5     4     3    1
     6     7     9    1
     7     3     1    2
     8     9     1    1
     9     9    10    1
    10     1     2    1
