@<TRIPOS>MOLECULE
1,2,3,4,5
 25 25 0 0 0
SMALL
GASTEIGER

@<TRIPOS>ATOM
      1 C           1.9854   18.4321   11.5327 C.2     1  UNL1       -0.0584
      2 C           1.0393   17.3509   11.5286 C.3     1  UNL1        0.0231
      3 C           1.3596   16.4890   10.4353 C.2     1  UNL1       -0.0584
      4 C           2.5565   16.9739    9.8247 C.2     1  UNL1       -0.0477
      5 C           2.9141   18.2084   10.4823 C.2     1  UNL1       -0.0477
      6 C           1.8468   19.6920   12.3369 C.3     1  UNL1       -0.0424
      7 H           2.8020   20.2043   12.4438 H       1  UNL1        0.0275
      8 H           1.4586   19.4867   13.3335 H       1  UNL1        0.0275
      9 H           1.1513   20.3716   11.8375 H       1  UNL1        0.0275
     10 C          -0.2592   17.3528   12.2804 C.3     1  UNL1       -0.0510
     11 H          -0.9863   17.9818   11.7597 H       1  UNL1        0.0242
     12 H          -0.1340   17.7461   13.2881 H       1  UNL1        0.0242
     13 H          -0.6708   16.3494   12.3566 H       1  UNL1        0.0242
     14 C           0.4309   15.4730    9.8425 C.3     1  UNL1       -0.0424
     15 H          -0.0674   14.8813   10.6064 H       1  UNL1        0.0275
     16 H           0.9553   14.7941    9.1741 H       1  UNL1        0.0275
     17 H          -0.3371   15.9919    9.2622 H       1  UNL1        0.0275
     18 C           3.0508   16.5846    8.4578 C.3     1  UNL1       -0.0395
     19 H           2.5108   17.1572    7.6985 H       1  UNL1        0.0278
     20 H           2.8874   15.5270    8.2607 H       1  UNL1        0.0278
     21 H           4.1135   16.7914    8.3444 H       1  UNL1        0.0278
     22 C           3.8799   19.2148    9.9299 C.3     1  UNL1       -0.0395
     23 H           3.3802   19.8044    9.1567 H       1  UNL1        0.0278
     24 H           4.7470   18.7359    9.4785 H       1  UNL1        0.0278
     25 H           4.2263   19.9018   10.7002 H       1  UNL1        0.0278
@<TRIPOS>BOND
     1    19    18    1
     2    20    18    1
     3    21    18    1
     4    18     4    1
     5    23    22    1
     6    16    14    1
     7    17    14    1
     8    24    22    1
     9     4     3    2
    10     4     5    1
    11    14     3    1
    12    14    15    1
    13    22     5    1
    14    22    25    1
    15     3     2    1
    16     5     1    2
    17     2     1    1
    18     2    10    1
    19     1     6    1
    20    11    10    1
    21     9     6    1
    22    10    13    1
    23    10    12    1
    24     6     7    1
    25     6     8    1
