@<TRIPOS>MOLECULE
1,3,5,7,9
 10 10 0 0 0
SMALL
GASTEIGER

@<TRIPOS>ATOM
      1 C           6.2132    8.7988   11.7842 C.2     1  UNL1       -0.0763
      2 H           6.0295    8.8587   12.8462 H       1  UNL1        0.0578
      3 C           6.0422    9.8541   10.8611 C.3     1  UNL1        0.0054
      4 H           5.7285   10.8607   11.1123 H       1  UNL1        0.0394
      5 C           6.1188    9.3005    9.5608 C.2     1  UNL1       -0.0763
      6 H           5.8637    9.8082    8.6398 H       1  UNL1        0.0578
      7 C           6.3467    7.9199    9.6880 C.2     1  UNL1       -0.0654
      8 H           6.3267    7.2019    8.8794 H       1  UNL1        0.0615
      9 C           6.4419    7.6095   11.0570 C.2     1  UNL1       -0.0654
     10 H           6.5056    6.6128   11.4775 H       1  UNL1        0.0615
@<TRIPOS>BOND
     1     6     5    1
     2     8     7    1
     3     5     7    2
     4     5     3    1
     5     7     9    1
     6     3     4    1
     7     3     1    1
     8     9    10    1
     9     9     1    2
    10     1     2    1
