@<TRIPOS>MOLECULE
1,3,5,7,9
 10 10 0 0 0
SMALL
GASTEIGER

@<TRIPOS>ATOM
      1 C          10.6983    9.1340    9.4389 C.2     1  UNL1       -0.0763
      2 H          11.5807    9.6706    9.7617 H       1  UNL1        0.0578
      3 C           9.7795    9.5945    8.4747 C.2     1  UNL1       -0.0654
      4 H           9.8621   10.5265    7.9324 H       1  UNL1        0.0615
      5 C           8.8841    8.5463    8.1899 C.2     1  UNL1       -0.0654
      6 H           8.1470    8.5479    7.3963 H       1  UNL1        0.0615
      7 C           9.2380    7.4383    8.9877 C.2     1  UNL1       -0.0763
      8 H           8.8307    6.4369    8.9100 H       1  UNL1        0.0578
      9 C          10.3631    7.7988    9.7590 C.3     1  UNL1        0.0054
     10 H          10.9595    7.1169   10.3510 H       1  UNL1        0.0394
@<TRIPOS>BOND
     1     6     5    1
     2     4     3    1
     3     5     3    1
     4     5     7    2
     5     3     1    2
     6     8     7    1
     7     7     9    1
     8     1     9    1
     9     1     2    1
    10     9    10    1
