@<TRIPOS>MOLECULE
1,2,3,4,5
 25 25 0 0 0
SMALL
GASTEIGER

@<TRIPOS>ATOM
      1 C           4.8968   11.9516   11.8653 C.2     1  UNL1       -0.0584
      2 C           3.8025   11.0539   12.0373 C.3     1  UNL1        0.0231
      3 C           3.4115   11.0933   13.4020 C.2     1  UNL1       -0.0584
      4 C           4.2572   12.0080   14.0750 C.2     1  UNL1       -0.0477
      5 C           5.1841   12.5320   13.1339 C.2     1  UNL1       -0.0477
      6 C           5.4162   12.4189   10.5277 C.3     1  UNL1       -0.0424
      7 C           3.0075   10.4128   10.9299 C.3     1  UNL1       -0.0510
      8 C           2.2062   10.4274   14.0070 C.3     1  UNL1       -0.0424
      9 C           4.0210   12.5319   15.4659 C.3     1  UNL1       -0.0395
     10 C           6.1163   13.6815   13.4216 C.3     1  UNL1       -0.0395
     11 H           4.6306   12.3356    9.7766 H       1  UNL1        0.0275
     12 H           6.2829   11.8562   10.1770 H       1  UNL1        0.0275
     13 H           5.7021   13.4697   10.5800 H       1  UNL1        0.0275
     14 H           2.6167    9.4389   11.2252 H       1  UNL1        0.0242
     15 H           3.6079   10.2830   10.0326 H       1  UNL1        0.0242
     16 H           2.1510   11.0433   10.6735 H       1  UNL1        0.0242
     17 H           1.8557    9.6064   13.3842 H       1  UNL1        0.0275
     18 H           1.3869   11.1438   14.1072 H       1  UNL1        0.0275
     19 H           2.4277   10.0369   15.0022 H       1  UNL1        0.0275
     20 H           3.6833   11.7430   16.1370 H       1  UNL1        0.0278
     21 H           3.2421   13.2995   15.4441 H       1  UNL1        0.0278
     22 H           4.9194   12.9831   15.8843 H       1  UNL1        0.0278
     23 H           5.6142   14.4144   14.0550 H       1  UNL1        0.0278
     24 H           6.4038   14.1898   12.5020 H       1  UNL1        0.0278
     25 H           7.0304   13.3663   13.9327 H       1  UNL1        0.0278
@<TRIPOS>BOND
     1    11     6    1
     2    15     7    1
     3    12     6    1
     4     6    13    1
     5     6     1    1
     6    16     7    1
     7     7    14    1
     8     7     2    1
     9     1     2    1
    10     1     5    2
    11     2     3    1
    12    24    10    1
    13     5    10    1
    14     5     4    1
    15    17     8    1
    16     3     8    1
    17     3     4    2
    18    10    25    1
    19    10    23    1
    20     8    18    1
    21     8    19    1
    22     4     9    1
    23    21     9    1
    24     9    22    1
    25     9    20    1
