@<TRIPOS>MOLECULE
1,3,5,7,9
 10 10 0 0 0
SMALL
GASTEIGER

@<TRIPOS>ATOM
      1 C           3.0077    0.7409    3.0719 C.2     1  UNL1       -0.0654
      2 H           3.4998    0.6554    2.1107 H       1  UNL1        0.0615
      3 C           3.6425    0.8849    4.3182 C.2     1  UNL1       -0.0763
      4 H           4.7120    0.9238    4.4914 H       1  UNL1        0.0578
      5 C           2.6590    0.7958    5.3202 C.3     1  UNL1        0.0054
      6 H           2.8424    0.7668    6.3878 H       1  UNL1        0.0394
      7 C           1.4182    0.5910    4.6921 C.2     1  UNL1       -0.0763
      8 H           0.4773    0.3982    5.1933 H       1  UNL1        0.0578
      9 C           1.6319    0.5671    3.3023 C.2     1  UNL1       -0.0654
     10 H           0.8877    0.3333    2.5504 H       1  UNL1        0.0615
@<TRIPOS>BOND
     1     2     1    1
     2    10     9    1
     3     1     9    1
     4     1     3    2
     5     9     7    2
     6     3     4    1
     7     3     5    1
     8     7     8    1
     9     7     5    1
    10     5     6    1
