@<TRIPOS>MOLECULE
1,2,3,4,5
 25 25 0 0 0
SMALL
GASTEIGER

@<TRIPOS>ATOM
      1 C           2.8189    2.7991    9.5998 C.2     1  UNL1       -0.0477
      2 C           4.0874    2.3138    9.1482 C.2     1  UNL1       -0.0477
      3 C           4.9665    3.4279    9.0201 C.2     1  UNL1       -0.0584
      4 C           4.2437    4.6041    9.4151 C.3     1  UNL1        0.0231
      5 C           2.9079    4.2024    9.7516 C.2     1  UNL1       -0.0584
      6 C           1.5564    1.9877    9.6191 C.3     1  UNL1       -0.0395
      7 C           4.3097    0.9627    8.5360 C.3     1  UNL1       -0.0395
      8 C           6.3203    3.4129    8.3749 C.3     1  UNL1       -0.0424
      9 C           4.7084    6.0178    9.2152 C.3     1  UNL1       -0.0510
     10 C           1.7766    5.1393   10.0495 C.3     1  UNL1       -0.0424
     11 H           1.7193    0.9876   10.0226 H       1  UNL1        0.0278
     12 H           1.1805    1.8734    8.5993 H       1  UNL1        0.0278
     13 H           0.7775    2.4732   10.2052 H       1  UNL1        0.0278
     14 H           4.0343    0.9974    7.4785 H       1  UNL1        0.0278
     15 H           3.6960    0.2007    9.0127 H       1  UNL1        0.0278
     16 H           5.3518    0.6592    8.6016 H       1  UNL1        0.0278
     17 H           6.2258    3.6004    7.3027 H       1  UNL1        0.0275
     18 H           6.8079    2.4493    8.5104 H       1  UNL1        0.0275
     19 H           6.9632    4.1824    8.7991 H       1  UNL1        0.0275
     20 H           4.4848    6.3472    8.1979 H       1  UNL1        0.0242
     21 H           4.2130    6.6951    9.9087 H       1  UNL1        0.0242
     22 H           5.7830    6.0987    9.3724 H       1  UNL1        0.0242
     23 H           1.0079    4.6588   10.6526 H       1  UNL1        0.0275
     24 H           1.3153    5.4753    9.1180 H       1  UNL1        0.0275
     25 H           2.1271    6.0180   10.5881 H       1  UNL1        0.0275
@<TRIPOS>BOND
     1    17     8    1
     2    14     7    1
     3    20     9    1
     4     8    18    1
     5     8    19    1
     6     8     3    1
     7     7    16    1
     8     7    15    1
     9     7     2    1
    10    12     6    1
    11     3     2    2
    12     3     4    1
    13    24    10    1
    14     2     1    1
    15     9    22    1
    16     9     4    1
    17     9    21    1
    18     4     5    1
    19     1     6    1
    20     1     5    2
    21     6    11    1
    22     6    13    1
    23     5    10    1
    24    10    25    1
    25    10    23    1
