@<TRIPOS>MOLECULE
1,2,3,4,5
 25 25 0 0 0
SMALL
GASTEIGER

@<TRIPOS>ATOM
      1 C           7.7076    0.3731   15.5849 C.2     1  UNL1       -0.0658
      2 C           7.4952   -0.9166   15.0395 C.2     1  UNL1       -0.0658
      3 C           6.3819   -0.8550   14.1459 C.3     1  UNL1        0.0052
      4 C           5.9063    0.4891   14.1309 C.3     1  UNL1       -0.0053
      5 C           6.7505    1.2652   15.0067 C.3     1  UNL1        0.0052
      6 C           8.5980    0.6900   16.7497 C.3     1  UNL1       -0.0430
      7 C           8.2233   -2.1495   15.4862 C.3     1  UNL1       -0.0430
      8 C           5.6653   -2.0137   13.5158 C.3     1  UNL1       -0.0545
      9 C           4.6251    0.9664   13.5130 C.3     1  UNL1       -0.0574
     10 C           6.4490    2.6587   15.4749 C.3     1  UNL1       -0.0545
     11 H           8.0290    0.5981   17.6784 H       1  UNL1        0.0275
     12 H           8.9821    1.7065   16.6913 H       1  UNL1        0.0275
     13 H           9.4408    0.0029   16.8056 H       1  UNL1        0.0275
     14 H           9.3044   -2.0081   15.4382 H       1  UNL1        0.0275
     15 H           7.9577   -2.3861   16.5192 H       1  UNL1        0.0275
     16 H           7.9700   -3.0080   14.8676 H       1  UNL1        0.0275
     17 H           6.2805   -2.9114   13.5131 H       1  UNL1        0.0239
     18 H           4.7524   -2.2351   14.0739 H       1  UNL1        0.0239
     19 H           5.3839   -1.7913   12.4867 H       1  UNL1        0.0239
     20 H           4.7006    2.0139   13.2252 H       1  UNL1        0.0236
     21 H           4.3792    0.3856   12.6260 H       1  UNL1        0.0236
     22 H           3.8035    0.8659   14.2262 H       1  UNL1        0.0236
     23 H           6.0964    3.2780   14.6513 H       1  UNL1        0.0239
     24 H           5.6696    2.6328   16.2397 H       1  UNL1        0.0239
     25 H           7.3309    3.1289   15.9046 H       1  UNL1        0.0239
@<TRIPOS>BOND
     1    19     8    1
     2    21     9    1
     3    20     9    1
     4     9     4    1
     5     9    22    1
     6    17     8    1
     7     8    18    1
     8     8     3    1
     9     4     3    1
    10     4     5    1
    11     3     2    1
    12    23    10    1
    13    16     7    1
    14     5    10    1
    15     5     1    1
    16     2     7    1
    17     2     1    2
    18    14     7    1
    19    10    25    1
    20    10    24    1
    21     7    15    1
    22     1     6    1
    23    12     6    1
    24     6    13    1
    25     6    11    1
