@<TRIPOS>MOLECULE
1,2,3,4,5
 25 25 0 0 0
SMALL
GASTEIGER

@<TRIPOS>ATOM
      1 C           2.4341    0.0867    7.8680 C.2     1  UNL1       -0.0477
      2 C           1.1871   -0.5161    8.1936 C.2     1  UNL1       -0.0477
      3 C           0.1933    0.5182    8.2571 C.2     1  UNL1       -0.0584
      4 C           0.8310    1.7520    7.9642 C.3     1  UNL1        0.0231
      5 C           2.2074    1.4857    7.6931 C.2     1  UNL1       -0.0584
      6 C           3.7817   -0.5680    7.9748 C.3     1  UNL1       -0.0395
      7 H           4.1075   -0.5727    9.0188 H       1  UNL1        0.0278
      8 H           4.5302   -0.0332    7.3922 H       1  UNL1        0.0278
      9 H           3.7557   -1.5959    7.6218 H       1  UNL1        0.0278
     10 C           0.9898   -1.8957    8.7575 C.3     1  UNL1       -0.0395
     11 H           0.8637   -1.8280    9.8416 H       1  UNL1        0.0278
     12 H           1.8466   -2.5336    8.5561 H       1  UNL1        0.0278
     13 H           0.1013   -2.3752    8.3477 H       1  UNL1        0.0278
     14 C          -1.1954    0.3402    8.7966 C.3     1  UNL1       -0.0424
     15 H          -1.1862    0.4006    9.8887 H       1  UNL1        0.0275
     16 H          -1.6013   -0.6302    8.5142 H       1  UNL1        0.0275
     17 H          -1.8660    1.1108    8.4199 H       1  UNL1        0.0275
     18 C           0.2155    3.1144    8.0791 C.3     1  UNL1       -0.0510
     19 H          -0.8494    3.0851    7.8512 H       1  UNL1        0.0242
     20 H           0.6869    3.8204    7.3960 H       1  UNL1        0.0242
     21 H           0.3345    3.4982    9.0959 H       1  UNL1        0.0242
     22 C           3.2678    2.5384    7.5390 C.3     1  UNL1       -0.0424
     23 H           2.9344    3.3479    6.8895 H       1  UNL1        0.0275
     24 H           4.1807    2.1183    7.1190 H       1  UNL1        0.0275
     25 H           3.5113    2.9706    8.5133 H       1  UNL1        0.0275
@<TRIPOS>BOND
     1    23    22    1
     2    24    22    1
     3     8     6    1
     4    20    18    1
     5    22     5    1
     6    22    25    1
     7     9     6    1
     8     5     1    2
     9     5     4    1
    10    19    18    1
    11     1     6    1
    12     1     2    1
    13     4    18    1
    14     4     3    1
    15     6     7    1
    16    18    21    1
    17     2     3    2
    18     2    10    1
    19     3    14    1
    20    13    10    1
    21    17    14    1
    22    16    14    1
    23    12    10    1
    24    10    11    1
    25    14    15    1
