@<TRIPOS>MOLECULE
1,2,4,6,8
 45 45 0 0 0
SMALL
GASTEIGER

@<TRIPOS>ATOM
      1 C           8.5149   11.4174    6.1479 C.3     1  UNL1        0.0000
      2 C           9.9000   11.7450    6.1256 C.2     1  UNL1        0.0000
      3 H          10.2961   12.7500    6.0520 H       1  UNL1        0.0000
      4 C          10.6467   10.5560    6.0588 C.2     1  UNL1        0.0000
      5 H          11.7187   10.4890    5.9241 H       1  UNL1        0.0000
      6 C           9.7411    9.4723    6.0275 C.2     1  UNL1        0.0000
      7 H          10.0036    8.4359    5.8576 H       1  UNL1        0.0000
      8 C           8.4356    9.9931    6.0874 C.2     1  UNL1        0.0000
      9 H           7.5197    9.4212    5.9853 H       1  UNL1        0.0000
     10 SI          7.0909   12.6467    6.0506 Si      1  UNL1        0.0000
     11 C           5.4913   11.7082    5.5847 C.3     1  UNL1        0.0000
     12 H           5.1499   11.1085    6.4234 H       1  UNL1        0.0000
     13 H           5.6236   11.0486    4.7362 H       1  UNL1        0.0000
     14 H           4.7004   12.4067    5.3340 H       1  UNL1        0.0000
     15 C           6.7053   13.4755    7.7261 C.3     1  UNL1        0.0000
     16 H           6.6771   12.7317    8.5197 H       1  UNL1        0.0000
     17 H           5.7272   13.9430    7.6957 H       1  UNL1        0.0000
     18 H           7.4238   14.2357    8.0063 H       1  UNL1        0.0000
     19 N           7.5586   13.7974    4.8056 N.3     1  UNL1        0.0000
     20 SI          7.7413   15.5023    5.2159 Si      1  UNL1        0.0000
     21 C           9.2505   15.7354    6.3638 C.3     1  UNL1        0.0000
     22 H           9.1959   16.6868    6.8843 H       1  UNL1        0.0000
     23 H          10.1755   15.7363    5.7939 H       1  UNL1        0.0000
     24 H           9.3339   14.9571    7.1148 H       1  UNL1        0.0000
     25 C           8.0576   16.6200    3.7044 C.3     1  UNL1        0.0000
     26 H           8.3324   17.6124    4.0493 H       1  UNL1        0.0000
     27 H           7.1716   16.7262    3.0902 H       1  UNL1        0.0000
     28 H           8.8586   16.2616    3.0707 H       1  UNL1        0.0000
     29 C           6.1239   16.1672    5.9852 C.3     1  UNL1        0.0000
     30 H           5.8952   17.1538    5.5943 H       1  UNL1        0.0000
     31 H           6.1922   16.2574    7.0627 H       1  UNL1        0.0000
     32 H           5.2834   15.5205    5.7583 H       1  UNL1        0.0000
     33 SI          8.0272   13.2185    3.2060 Si      1  UNL1        0.0000
     34 C           9.8972   13.5268    2.9509 C.3     1  UNL1        0.0000
     35 H          10.1373   13.6179    1.8962 H       1  UNL1        0.0000
     36 H          10.4799   12.7005    3.3464 H       1  UNL1        0.0000
     37 H          10.2317   14.4307    3.4467 H       1  UNL1        0.0000
     38 C           6.9582   14.0968    1.8876 C.3     1  UNL1        0.0000
     39 H           6.0480   14.4953    2.3216 H       1  UNL1        0.0000
     40 H           6.6741   13.4047    1.1013 H       1  UNL1        0.0000
     41 H           7.4861   14.9176    1.4170 H       1  UNL1        0.0000
     42 C           7.7694   11.3580    2.8900 C.3     1  UNL1        0.0000
     43 H           8.2222   10.7369    3.6520 H       1  UNL1        0.0000
     44 H           8.2267   11.0958    1.9405 H       1  UNL1        0.0000
     45 H           6.7193   11.0994    2.8211 H       1  UNL1        0.0000
@<TRIPOS>BOND
     1    40    38    1
     2    41    38    1
     3    38    39    1
     4    38    33    1
     5    35    34    1
     6    44    42    1
     7    45    42    1
     8    42    33    1
     9    42    43    1
    10    34    33    1
    11    34    36    1
    12    34    37    1
    13    28    25    1
    14    27    25    1
    15    33    19    1
    16    25    26    1
    17    25    20    1
    18    13    11    1
    19    19    20    1
    20    19    10    1
    21    20    29    1
    22    20    21    1
    23    14    11    1
    24    11    10    1
    25    11    12    1
    26    30    29    1
    27    32    29    1
    28    23    21    1
    29     7     6    1
    30     5     4    1
    31    29    31    1
    32     9     8    1
    33     6     4    1
    34     6     8    2
    35    10     1    1
    36    10    15    1
    37     3     2    1
    38     4     2    2
    39     8     1    1
    40     2     1    1
    41    21    22    1
    42    21    24    1
    43    17    15    1
    44    15    18    1
    45    15    16    1
