@<TRIPOS>MOLECULE
1,2,4,6,8
 45 45 0 0 0
SMALL
GASTEIGER

@<TRIPOS>ATOM
      1 C           9.9443   10.0107   10.3970 C.3     1  UNL1        0.0000
      2 C           9.4764    8.8010    9.8093 C.2     1  UNL1        0.0000
      3 H           8.6385    8.2205   10.1749 H       1  UNL1        0.0000
      4 C          10.3718    8.4127    8.7977 C.2     1  UNL1        0.0000
      5 H          10.3381    7.4814    8.2469 H       1  UNL1        0.0000
      6 C          11.4134    9.3662    8.7466 C.2     1  UNL1        0.0000
      7 H          12.3149    9.2834    8.1530 H       1  UNL1        0.0000
      8 C          11.1537   10.3484    9.7201 C.2     1  UNL1        0.0000
      9 H          11.8217   11.1559    9.9979 H       1  UNL1        0.0000
     10 SI          9.2012   10.8410   11.9138 Si      1  UNL1        0.0000
     11 C          10.4763   12.0497   12.6711 C.3     1  UNL1        0.0000
     12 H          10.0785   12.4967   13.5759 H       1  UNL1        0.0000
     13 H          10.6967   12.8552   11.9768 H       1  UNL1        0.0000
     14 H          11.4100   11.5671   12.9339 H       1  UNL1        0.0000
     15 C           7.6803   11.9156   11.4957 C.3     1  UNL1        0.0000
     16 H           7.8653   12.5075   10.6017 H       1  UNL1        0.0000
     17 H           7.4807   12.6141   12.3007 H       1  UNL1        0.0000
     18 H           6.7800   11.3362   11.3319 H       1  UNL1        0.0000
     19 N           8.8370    9.5193   13.0135 N.3     1  UNL1        0.0000
     20 SI         10.0940    8.3481   13.4186 Si      1  UNL1        0.0000
     21 C          10.4996    8.5195   15.2766 C.3     1  UNL1        0.0000
     22 H          11.4249    8.0048   15.5159 H       1  UNL1        0.0000
     23 H           9.7243    8.1044   15.9080 H       1  UNL1        0.0000
     24 H          10.6216    9.5624   15.5506 H       1  UNL1        0.0000
     25 C          11.7637    8.5581   12.5241 C.3     1  UNL1        0.0000
     26 H          11.6978    8.3373   11.4663 H       1  UNL1        0.0000
     27 H          12.4825    7.8672   12.9551 H       1  UNL1        0.0000
     28 H          12.1721    9.5550   12.6296 H       1  UNL1        0.0000
     29 C           9.4922    6.5915   12.9531 C.3     1  UNL1        0.0000
     30 H           9.6502    5.8930   13.7684 H       1  UNL1        0.0000
     31 H          10.0348    6.2099   12.0937 H       1  UNL1        0.0000
     32 H           8.4369    6.5800   12.7065 H       1  UNL1        0.0000
     33 SI          7.1980    9.3199   13.6309 Si      1  UNL1        0.0000
     34 C           7.0695    8.0601   15.0566 C.3     1  UNL1        0.0000
     35 H           6.0242    7.8193   15.2256 H       1  UNL1        0.0000
     36 H           7.4571    8.4698   15.9825 H       1  UNL1        0.0000
     37 H           7.5908    7.1330   14.8583 H       1  UNL1        0.0000
     38 C           6.5616   10.9547   14.3867 C.3     1  UNL1        0.0000
     39 H           6.0099   10.7593   15.3010 H       1  UNL1        0.0000
     40 H           5.8939   11.4823   13.7164 H       1  UNL1        0.0000
     41 H           7.3809   11.6208   14.6336 H       1  UNL1        0.0000
     42 C           6.0709    8.6815   12.2259 C.3     1  UNL1        0.0000
     43 H           5.0283    8.9013   12.4346 H       1  UNL1        0.0000
     44 H           6.1533    7.6038   12.1167 H       1  UNL1        0.0000
     45 H           6.3125    9.1235   11.2648 H       1  UNL1        0.0000
@<TRIPOS>BOND
     1     7     6    1
     2     5     4    1
     3     6     4    1
     4     6     8    2
     5     4     2    2
     6     8     9    1
     7     8     1    1
     8     2     3    1
     9     2     1    1
    10     1    10    1
    11    16    15    1
    12    45    42    1
    13    18    15    1
    14    26    25    1
    15    15    10    1
    16    15    17    1
    17    10    11    1
    18    10    19    1
    19    13    11    1
    20    31    29    1
    21    44    42    1
    22    42    43    1
    23    42    33    1
    24    25    28    1
    25    25    27    1
    26    25    20    1
    27    11    14    1
    28    11    12    1
    29    32    29    1
    30    29    20    1
    31    29    30    1
    32    19    20    1
    33    19    33    1
    34    20    21    1
    35    33    38    1
    36    33    34    1
    37    40    38    1
    38    38    41    1
    39    38    39    1
    40    37    34    1
    41    34    35    1
    42    34    36    1
    43    21    22    1
    44    21    24    1
    45    21    23    1
