@<TRIPOS>MOLECULE
1,2,3,4,5
 25 25 0 0 0
SMALL
GASTEIGER

@<TRIPOS>ATOM
      1 C           3.2023    3.7659    5.5923 C.2     1  UNL1       -0.0658
      2 C           4.3978    3.3143    4.9507 C.2     1  UNL1       -0.0658
      3 C           4.6274    1.9605    5.3484 C.3     1  UNL1        0.0052
      4 C           3.5627    1.5809    6.2358 C.3     1  UNL1       -0.0053
      5 C           2.7064    2.7065    6.4046 C.3     1  UNL1        0.0052
      6 C           2.7868    5.1961    5.7719 C.3     1  UNL1       -0.0430
      7 H           3.2077    5.5765    6.7069 H       1  UNL1        0.0275
      8 H           1.7038    5.2905    5.8374 H       1  UNL1        0.0275
      9 H           3.1376    5.8300    4.9614 H       1  UNL1        0.0275
     10 C           5.3912    4.2179    4.2803 C.3     1  UNL1       -0.0430
     11 H           4.8910    5.0038    3.7153 H       1  UNL1        0.0275
     12 H           6.0400    3.6697    3.5980 H       1  UNL1        0.0275
     13 H           6.0226    4.6948    5.0347 H       1  UNL1        0.0275
     14 C           5.9149    1.2064    5.1968 C.3     1  UNL1       -0.0545
     15 H           6.5148    1.3123    6.1045 H       1  UNL1        0.0239
     16 H           6.4975    1.5896    4.3617 H       1  UNL1        0.0239
     17 H           5.7384    0.1437    5.0360 H       1  UNL1        0.0239
     18 C           3.5585    0.3793    7.1348 C.3     1  UNL1       -0.0574
     19 H           3.9468    0.6550    8.1187 H       1  UNL1        0.0236
     20 H           4.1819   -0.4182    6.7373 H       1  UNL1        0.0236
     21 H           2.5501   -0.0104    7.2644 H       1  UNL1        0.0236
     22 C           1.7561    2.8882    7.5479 C.3     1  UNL1       -0.0545
     23 H           1.3043    1.9465    7.8453 H       1  UNL1        0.0239
     24 H           0.9616    3.5895    7.3086 H       1  UNL1        0.0239
     25 H           2.3102    3.2816    8.4050 H       1  UNL1        0.0239
@<TRIPOS>BOND
     1    12    10    1
     2    11    10    1
     3    10     2    1
     4    10    13    1
     5    16    14    1
     6     2     3    1
     7     2     1    2
     8     9     6    1
     9    17    14    1
    10    14     3    1
    11    14    15    1
    12     3     4    1
    13     1     6    1
    14     1     5    1
    15     6     8    1
    16     6     7    1
    17     4     5    1
    18     4    18    1
    19     5    22    1
    20    20    18    1
    21    18    21    1
    22    18    19    1
    23    24    22    1
    24    22    23    1
    25    22    25    1
