@<TRIPOS>MOLECULE
1,2,3,4,5
 10 10 0 0 0
SMALL
GASTEIGER

@<TRIPOS>ATOM
      1 C           7.0748    7.3586   11.1064 C.2     1  UNL1       -0.0763
      2 C           6.1094    6.3677   11.3851 C.2     1  UNL1       -0.0654
      3 C           5.4027    6.7592   12.5473 C.2     1  UNL1       -0.0654
      4 C           5.9525    7.9780   12.9941 C.2     1  UNL1       -0.0763
      5 C           6.9667    8.3626   12.0939 C.3     1  UNL1        0.0054
      6 H           7.8567    7.2984   10.3597 H       1  UNL1        0.0578
      7 H           6.0228    5.4143   10.8789 H       1  UNL1        0.0615
      8 H           4.6712    6.1602   13.0787 H       1  UNL1        0.0615
      9 H           5.7374    8.4580   13.9405 H       1  UNL1        0.0578
     10 H           7.6482    9.1941   12.2188 H       1  UNL1        0.0394
@<TRIPOS>BOND
     1     6     1    1
     2     7     2    1
     3     1     2    2
     4     1     5    1
     5     2     3    1
     6     5    10    1
     7     5     4    1
     8     3     4    2
     9     3     8    1
    10     4     9    1
