@<TRIPOS>MOLECULE
1,2,3,4,5
 10 10 0 0 0
SMALL
GASTEIGER

@<TRIPOS>ATOM
      1 C           4.1392   10.8316   10.4973 C.3     1  UNL1       -0.0127
      2 C           4.5678   10.6985   11.8341 C.2     1  UNL1       -0.0837
      3 C           3.6582    9.8487   12.5000 C.2     1  UNL1       -0.0837
      4 C           2.6803    9.4362   11.5732 C.3     1  UNL1       -0.0127
      5 C           2.9737   10.0487   10.3318 C.3     1  UNL1       -0.0235
      6 H           4.5632   11.5065    9.7628 H       1  UNL1        0.0352
      7 H           5.3678   11.2627   12.2978 H       1  UNL1        0.0572
      8 H           3.6195    9.6639   13.5664 H       1  UNL1        0.0572
      9 H           1.7838    8.8788   11.8157 H       1  UNL1        0.0352
     10 H           2.3468   10.0261    9.4478 H       1  UNL1        0.0315
@<TRIPOS>BOND
     1    10     5    1
     2     6     1    1
     3     5     1    1
     4     5     4    1
     5     1     2    1
     6     4     9    1
     7     4     3    1
     8     2     7    1
     9     2     3    2
    10     3     8    1
