@<TRIPOS>MOLECULE
1,2,3,4,5
 10 10 0 0 0
SMALL
GASTEIGER

@<TRIPOS>ATOM
      1 C          -0.1891   11.2412    4.8719 C.2     1  UNL1       -0.0763
      2 C          -0.4713   12.1260    5.9291 C.3     1  UNL1        0.0054
      3 C           0.5963   12.0593    6.8530 C.2     1  UNL1       -0.0763
      4 C           1.5318   11.1283    6.3698 C.2     1  UNL1       -0.0654
      5 C           1.0602   10.6307    5.1353 C.2     1  UNL1       -0.0654
      6 H          -0.8636   10.9808    4.0647 H       1  UNL1        0.0578
      7 H          -1.3971   12.6669    6.0804 H       1  UNL1        0.0394
      8 H           0.6173   12.5388    7.8231 H       1  UNL1        0.0578
      9 H           2.3885   10.7556    6.9183 H       1  UNL1        0.0615
     10 H           1.4866    9.8021    4.5843 H       1  UNL1        0.0615
@<TRIPOS>BOND
     1     6     1    1
     2    10     5    1
     3     1     5    2
     4     1     2    1
     5     5     4    1
     6     2     7    1
     7     2     3    1
     8     4     3    2
     9     4     9    1
    10     3     8    1
