@<TRIPOS>MOLECULE
1,2,3,4,5
 10 10 0 0 0
SMALL
GASTEIGER

@<TRIPOS>ATOM
      1 C           3.6260   14.2304    3.7145 C.2     1  UNL1       -0.0763
      2 C           3.8855   12.8512    3.5982 C.2     1  UNL1       -0.0654
      3 C           3.9499   12.3076    4.8978 C.2     1  UNL1       -0.0654
      4 C           3.7283   13.3547    5.8222 C.2     1  UNL1       -0.0763
      5 C           3.5304   14.5462    5.0864 C.3     1  UNL1        0.0054
      6 H           3.6347   14.9452    2.9019 H       1  UNL1        0.0578
      7 H           4.1280   12.3316    2.6814 H       1  UNL1        0.0615
      8 H           4.2692   11.3010    5.1415 H       1  UNL1        0.0615
      9 H           3.8408   13.2876    6.8994 H       1  UNL1        0.0578
     10 H           3.4610   15.5455    5.4978 H       1  UNL1        0.0394
@<TRIPOS>BOND
     1     7     2    1
     2     6     1    1
     3     2     1    2
     4     2     3    1
     5     1     5    1
     6     3     8    1
     7     3     4    2
     8     5    10    1
     9     5     4    1
    10     4     9    1
