@<TRIPOS>MOLECULE
1,2,3,4,5
 10 10 0 0 0
SMALL
GASTEIGER

@<TRIPOS>ATOM
      1 C           9.1933    3.8031    8.2503 C.2     1  UNL1       -0.0763
      2 C           7.8578    3.8274    7.7849 C.2     1  UNL1       -0.0654
      3 C           7.0425    4.2671    8.8410 C.2     1  UNL1       -0.0654
      4 C           7.8597    4.4726    9.9717 C.2     1  UNL1       -0.0763
      5 C           9.1912    4.2122    9.5954 C.3     1  UNL1        0.0054
      6 H          10.0724    3.6155    7.6436 H       1  UNL1        0.0578
      7 H           7.5428    3.6546    6.7630 H       1  UNL1        0.0615
      8 H           5.9898    4.5088    8.7677 H       1  UNL1        0.0615
      9 H           7.5424    4.8942   10.9165 H       1  UNL1        0.0578
     10 H          10.0665    4.4180   10.1904 H       1  UNL1        0.0394
@<TRIPOS>BOND
     1     7     2    1
     2     6     1    1
     3     2     1    2
     4     2     3    1
     5     1     5    1
     6     8     3    1
     7     3     4    2
     8     5     4    1
     9     5    10    1
    10     4     9    1
