@<TRIPOS>MOLECULE
1,2,3,4,5
 10 10 0 0 0
SMALL
GASTEIGER

@<TRIPOS>ATOM
      1 C           7.0407    0.1970   10.3509 C.2     1  UNL1       -0.0763
      2 C           6.3616    0.4415    9.1446 C.2     1  UNL1       -0.0654
      3 C           5.7020    1.6781    9.2568 C.2     1  UNL1       -0.0654
      4 C           5.9661    2.1961   10.5442 C.2     1  UNL1       -0.0763
      5 C           6.8150    1.2923   11.2145 C.3     1  UNL1        0.0054
      6 H           7.5522   -0.7190   10.6207 H       1  UNL1        0.0578
      7 H           6.2756   -0.2442    8.3108 H       1  UNL1        0.0615
      8 H           5.0115    2.0880    8.5298 H       1  UNL1        0.0615
      9 H           5.4980    3.0665   10.9873 H       1  UNL1        0.0578
     10 H           7.1136    1.3513   12.2533 H       1  UNL1        0.0394
@<TRIPOS>BOND
     1     7     2    1
     2     8     3    1
     3     2     3    1
     4     2     1    2
     5     3     4    2
     6     1     6    1
     7     1     5    1
     8     4     9    1
     9     4     5    1
    10     5    10    1
