@<TRIPOS>MOLECULE
28,29,31,33,35
 35 37 0 0 0
SMALL
GASTEIGER

@<TRIPOS>ATOM
      1 O           0.3107   -0.1205    6.3409 O.3     1  UNL1       -0.3428
      2 O          -1.0505    1.1288    4.9729 O.3     1  UNL1       -0.3428
      3 C           1.2562    0.7362    4.3124 C.3     1  UNL1       -0.0108
      4 H           1.0477    0.9545    3.2695 H       1  UNL1        0.0281
      5 H           2.0611    0.0116    4.3862 H       1  UNL1        0.0281
      6 H           1.5566    1.6508    4.8171 H       1  UNL1        0.0281
      7 C          -0.4916   -1.0879    4.2605 C.3     1  UNL1       -0.0108
      8 H          -1.3551   -1.4909    4.7830 H       1  UNL1        0.0281
      9 H           0.2981   -1.8326    4.2461 H       1  UNL1        0.0281
     10 H          -0.7792   -0.8317    3.2455 H       1  UNL1        0.0281
     11 C           0.0004    0.1694    4.9813 C.3     1  UNL1        0.1654
     12 C          -3.6424    1.2617    6.3948 C.3     1  UNL1       -0.0559
     13 H          -3.5805    0.9444    5.3568 H       1  UNL1        0.0236
     14 H          -4.5889    1.7722    6.5543 H       1  UNL1        0.0236
     15 H          -3.6202    0.3860    7.0385 H       1  UNL1        0.0236
     16 C           1.0877    1.5184    8.5892 C.3     1  UNL1       -0.0559
     17 H           1.0834    2.4912    8.0912 H       1  UNL1        0.0236
     18 H           1.8008    0.8689    8.0861 H       1  UNL1        0.0236
     19 H           1.4006    1.6575    9.6223 H       1  UNL1        0.0236
     20 C          -0.3029    0.8759    8.5464 C.3     1  UNL1        0.0101
     21 H          -0.2724   -0.0210    9.1773 H       1  UNL1        0.0372
     22 C          -0.7054    0.4614    7.1325 C.3     1  UNL1        0.0951
     23 H          -1.5496   -0.2428    7.1981 H       1  UNL1        0.0629
     24 C          -1.1274    1.6583    6.2791 C.3     1  UNL1        0.0951
     25 H          -0.3736    2.4597    6.3862 H       1  UNL1        0.0629
     26 C          -2.4806    2.2105    6.7117 C.3     1  UNL1        0.0101
     27 H          -2.6686    3.1478    6.1741 H       1  UNL1        0.0372
     28 C          -2.3467    2.4428    8.2006 C.2     1  UNL1       -0.0421
     29 C          -3.2549    3.1379    9.0340 C.2     1  UNL1       -0.0725
     30 H          -4.1769    3.5974    8.7009 H       1  UNL1        0.0581
     31 C          -2.8813    2.9104   10.3753 C.3     1  UNL1        0.0060
     32 H          -3.4831    3.1393   11.2467 H       1  UNL1        0.0394
     33 C          -1.7231    2.0972   10.3745 C.2     1  UNL1       -0.0725
     34 H          -1.2936    1.6215   11.2459 H       1  UNL1        0.0581
     35 C          -1.3957    1.8020    9.0295 C.2     1  UNL1       -0.0421
@<TRIPOS>BOND
     1    10     7    1
     2     4     3    1
     3     9     7    1
     4     7     8    1
     5     7    11    1
     6     3     5    1
     7     3     6    1
     8     3    11    1
     9     2    11    1
    10     2    24    1
    11    11     1    1
    12    13    12    1
    13    27    26    1
    14    24    25    1
    15    24    26    1
    16    24    22    1
    17     1    22    1
    18    12    14    1
    19    12    26    1
    20    12    15    1
    21    26    28    1
    22    22    23    1
    23    22    20    1
    24    18    16    1
    25    17    16    1
    26    28    35    1
    27    28    29    2
    28    20    16    1
    29    20    35    1
    30    20    21    1
    31    16    19    1
    32    30    29    1
    33    35    33    2
    34    29    31    1
    35    33    31    1
    36    33    34    1
    37    31    32    1
