@<TRIPOS>MOLECULE
3,5,7,9,11
 12 12 0 0 0
SMALL
GASTEIGER

@<TRIPOS>ATOM
      1 O           4.2825   -1.4553    5.9475 O.2     1  UNL1       -0.2924
      2 C           3.6697   -1.2674    4.8889 C.2     1  UNL1        0.1598
      3 C           4.3009   -0.7350    3.6863 C.3     1  UNL1        0.0352
      4 H           5.3780   -0.6022    3.7367 H       1  UNL1        0.0391
      5 C           3.6742   -0.7452    2.4360 C.3     1  UNL1       -0.0197
      6 H           4.2519   -0.5470    1.5369 H       1  UNL1        0.0317
      7 C           2.3068   -1.0718    2.3296 C.3     1  UNL1       -0.0122
      8 H           1.8466   -1.1837    1.3516 H       1  UNL1        0.0352
      9 C           1.6389   -1.5423    3.4902 C.2     1  UNL1       -0.0768
     10 H           0.6465   -1.9735    3.3866 H       1  UNL1        0.0576
     11 C           2.2483   -1.5543    4.7305 C.2     1  UNL1       -0.0225
     12 H           1.7369   -1.9977    5.5794 H       1  UNL1        0.0649
@<TRIPOS>BOND
     1     8     7    1
     2     6     5    1
     3     7     5    1
     4     7     9    1
     5     5     3    1
     6    10     9    1
     7     9    11    2
     8     3     4    1
     9     3     2    1
    10    11     2    1
    11    11    12    1
    12     2     1    2
