@<TRIPOS>MOLECULE
1,2,3,4,5
 25 25 0 0 0
SMALL
GASTEIGER

@<TRIPOS>ATOM
      1 C           7.7010    7.1360   12.9900 C.2     1  UNL1       -0.0477
      2 C           6.4699    7.4975   13.6150 C.2     1  UNL1       -0.0477
      3 C           6.6596    7.4162   15.0244 C.2     1  UNL1       -0.0584
      4 C           7.9924    7.0152   15.2714 C.3     1  UNL1        0.0231
      5 C           8.6396    6.8340   14.0122 C.2     1  UNL1       -0.0584
      6 C           7.9035    6.8992   11.5189 C.3     1  UNL1       -0.0395
      7 H           7.6527    5.8640   11.2595 H       1  UNL1        0.0278
      8 H           8.9379    7.0797   11.2275 H       1  UNL1        0.0278
      9 H           7.2768    7.5595   10.9205 H       1  UNL1        0.0278
     10 C           5.1253    7.6062   12.9521 C.3     1  UNL1       -0.0395
     11 H           5.2264    7.7084   11.8734 H       1  UNL1        0.0278
     12 H           4.5609    8.4618   13.3269 H       1  UNL1        0.0278
     13 H           4.5329    6.7047   13.1496 H       1  UNL1        0.0278
     14 C           5.5697    7.5576   16.0457 C.3     1  UNL1       -0.0424
     15 H           5.0507    6.6026   16.1897 H       1  UNL1        0.0275
     16 H           4.8332    8.2975   15.7320 H       1  UNL1        0.0275
     17 H           5.9706    7.8722   17.0088 H       1  UNL1        0.0275
     18 C           8.5789    6.6344   16.5984 C.3     1  UNL1       -0.0510
     19 H           8.0671    7.1441   17.4140 H       1  UNL1        0.0242
     20 H           9.6360    6.8967   16.6501 H       1  UNL1        0.0242
     21 H           8.4903    5.5541   16.7643 H       1  UNL1        0.0242
     22 C           9.9695    6.1577   13.8398 C.3     1  UNL1       -0.0424
     23 H          10.7165    6.5736   14.5174 H       1  UNL1        0.0275
     24 H          10.3363    6.2599   12.8199 H       1  UNL1        0.0275
     25 H           9.8797    5.0871   14.0598 H       1  UNL1        0.0275
@<TRIPOS>BOND
     1     9     6    1
     2     8     6    1
     3     7     6    1
     4     6     1    1
     5    11    10    1
     6    24    22    1
     7    10    13    1
     8    10    12    1
     9    10     2    1
    10     1     2    1
    11     1     5    2
    12     2     3    2
    13    22     5    1
    14    22    25    1
    15    22    23    1
    16     5     4    1
    17     3     4    1
    18     3    14    1
    19     4    18    1
    20    16    14    1
    21    14    15    1
    22    14    17    1
    23    18    20    1
    24    18    21    1
    25    18    19    1
