@<TRIPOS>MOLECULE
1,2,3,4,5
 25 25 0 0 0
SMALL
GASTEIGER

@<TRIPOS>ATOM
      1 C           4.7155    0.7966    9.7665 C.2     1  UNL1       -0.0477
      2 C           3.6912    1.4036    8.9787 C.2     1  UNL1       -0.0584
      3 C           2.5057    0.6073    9.1041 C.3     1  UNL1        0.0231
      4 C           2.8052   -0.4950    9.9537 C.2     1  UNL1       -0.0584
      5 C           4.1685   -0.3945   10.3478 C.2     1  UNL1       -0.0477
      6 C           6.1820    1.0974    9.6332 C.3     1  UNL1       -0.0395
      7 H           6.5767    0.5923    8.7477 H       1  UNL1        0.0278
      8 H           6.7418    0.7468   10.4968 H       1  UNL1        0.0278
      9 H           6.3624    2.1648    9.5151 H       1  UNL1        0.0278
     10 C           3.8797    2.4961    7.9678 C.3     1  UNL1       -0.0424
     11 H           4.7743    3.0768    8.1785 H       1  UNL1        0.0275
     12 H           3.0243    3.1706    7.9465 H       1  UNL1        0.0275
     13 H           3.9880    2.0582    6.9726 H       1  UNL1        0.0275
     14 C           1.2588    0.7481    8.2826 C.3     1  UNL1       -0.0510
     15 H           1.0900    1.7836    7.9916 H       1  UNL1        0.0242
     16 H           0.3863    0.4010    8.8346 H       1  UNL1        0.0242
     17 H           1.3438    0.1492    7.3726 H       1  UNL1        0.0242
     18 C           1.9107   -1.6848   10.1425 C.3     1  UNL1       -0.0424
     19 H           1.8238   -2.2310    9.2004 H       1  UNL1        0.0275
     20 H           0.9084   -1.3859   10.4490 H       1  UNL1        0.0275
     21 H           2.3105   -2.3678   10.8889 H       1  UNL1        0.0275
     22 C           4.9638   -1.5384   10.9005 C.3     1  UNL1       -0.0395
     23 H           4.4689   -2.0165   11.7445 H       1  UNL1        0.0278
     24 H           5.9515   -1.2240   11.2252 H       1  UNL1        0.0278
     25 H           5.0876   -2.2887   10.1152 H       1  UNL1        0.0278
@<TRIPOS>BOND
     1    13    10    1
     2    17    14    1
     3    12    10    1
     4    10    11    1
     5    10     2    1
     6    15    14    1
     7    14    16    1
     8    14     3    1
     9     7     6    1
    10     2     3    1
    11     2     1    2
    12     3     4    1
    13    19    18    1
    14     9     6    1
    15     6     1    1
    16     6     8    1
    17     1     5    1
    18     4    18    1
    19     4     5    2
    20    25    22    1
    21    18    20    1
    22    18    21    1
    23     5    22    1
    24    22    24    1
    25    22    23    1
