@<TRIPOS>MOLECULE
1,2,3,4,5
 25 25 0 0 0
SMALL
GASTEIGER

@<TRIPOS>ATOM
      1 C           0.5838    4.1616   14.9605 C.2     1  UNL1       -0.0477
      2 C           0.9908    4.9464   16.0742 C.2     1  UNL1       -0.0584
      3 C           2.0526    4.2458   16.7354 C.3     1  UNL1        0.0231
      4 C           2.2763    3.0209   16.0419 C.2     1  UNL1       -0.0584
      5 C           1.3635    2.9615   14.9511 C.2     1  UNL1       -0.0477
      6 C          -0.6534    4.3452   14.1316 C.3     1  UNL1       -0.0395
      7 H          -0.4872    4.0354   13.1003 H       1  UNL1        0.0278
      8 H          -0.9809    5.3819   14.1336 H       1  UNL1        0.0278
      9 H          -1.4657    3.7351   14.5366 H       1  UNL1        0.0278
     10 C           0.2952    6.1568   16.6273 C.3     1  UNL1       -0.0424
     11 H          -0.3467    6.6224   15.8825 H       1  UNL1        0.0275
     12 H           1.0096    6.9030   16.9747 H       1  UNL1        0.0275
     13 H          -0.3286    5.8684   17.4770 H       1  UNL1        0.0275
     14 C           2.6334    4.6058   18.0712 C.3     1  UNL1       -0.0510
     15 H           3.6531    4.2359   18.1683 H       1  UNL1        0.0242
     16 H           2.0347    4.1620   18.8711 H       1  UNL1        0.0242
     17 H           2.6471    5.6849   18.2185 H       1  UNL1        0.0242
     18 C           3.1433    1.9081   16.5527 C.3     1  UNL1       -0.0424
     19 H           2.6555    1.4173   17.3987 H       1  UNL1        0.0275
     20 H           4.1074    2.2845   16.8931 H       1  UNL1        0.0275
     21 H           3.3261    1.1579   15.7859 H       1  UNL1        0.0275
     22 C           0.9831    1.7436   14.1631 C.3     1  UNL1       -0.0395
     23 H          -0.0495    1.4711   14.3958 H       1  UNL1        0.0278
     24 H           1.6197    0.9007   14.4205 H       1  UNL1        0.0278
     25 H           1.0499    1.9125   13.0884 H       1  UNL1        0.0278
@<TRIPOS>BOND
     1    25    22    1
     2     7     6    1
     3     6     8    1
     4     6     9    1
     5     6     1    1
     6    22    23    1
     7    22    24    1
     8    22     5    1
     9     5     1    1
    10     5     4    2
    11     1     2    2
    12    21    18    1
    13    11    10    1
    14     4    18    1
    15     4     3    1
    16     2    10    1
    17     2     3    1
    18    18    20    1
    19    18    19    1
    20    10    12    1
    21    10    13    1
    22     3    14    1
    23    14    15    1
    24    14    17    1
    25    14    16    1
