@<TRIPOS>MOLECULE
1,2,3,4,5
 25 25 0 0 0
SMALL
GASTEIGER

@<TRIPOS>ATOM
      1 C           6.5152   -1.3195    0.7204 C.2     1  UNL1       -0.0584
      2 C           6.8359   -1.8698    1.9870 C.3     1  UNL1        0.0231
      3 C           5.6325   -2.0412    2.7095 C.2     1  UNL1       -0.0584
      4 C           4.5487   -1.6480    1.8757 C.2     1  UNL1       -0.0477
      5 C           5.0939   -1.2051    0.6321 C.2     1  UNL1       -0.0477
      6 C           7.4997   -1.1011   -0.3985 C.3     1  UNL1       -0.0424
      7 C           8.1621   -2.4639    2.3755 C.3     1  UNL1       -0.0510
      8 C           5.4927   -2.8186    3.9880 C.3     1  UNL1       -0.0424
      9 C           3.1162   -1.9921    2.1874 C.3     1  UNL1       -0.0395
     10 C           4.3368   -0.8754   -0.6286 C.3     1  UNL1       -0.0395
     11 H           7.0579   -0.5072   -1.1958 H       1  UNL1        0.0275
     12 H           7.8184   -2.0597   -0.8171 H       1  UNL1        0.0275
     13 H           8.3886   -0.5727   -0.0460 H       1  UNL1        0.0275
     14 H           8.4467   -2.2233    3.3996 H       1  UNL1        0.0242
     15 H           8.9534   -2.1334    1.7063 H       1  UNL1        0.0242
     16 H           8.1028   -3.5526    2.3023 H       1  UNL1        0.0242
     17 H           6.3763   -2.7176    4.6156 H       1  UNL1        0.0275
     18 H           5.3796   -3.8828    3.7626 H       1  UNL1        0.0275
     19 H           4.6212   -2.5002    4.5548 H       1  UNL1        0.0275
     20 H           2.5317   -2.0749    1.2728 H       1  UNL1        0.0278
     21 H           2.6402   -1.2623    2.8500 H       1  UNL1        0.0278
     22 H           3.0795   -2.9633    2.6822 H       1  UNL1        0.0278
     23 H           3.3779   -1.3921   -0.6424 H       1  UNL1        0.0278
     24 H           4.9041   -1.2108   -1.4965 H       1  UNL1        0.0278
     25 H           4.1607    0.1988   -0.7386 H       1  UNL1        0.0278
@<TRIPOS>BOND
     1    24    10    1
     2    11     6    1
     3    12     6    1
     4    25    10    1
     5    23    10    1
     6    10     5    1
     7     6    13    1
     8     6     1    1
     9     5     1    2
    10     5     4    1
    11     1     2    1
    12    20     9    1
    13    15     7    1
    14     4     9    1
    15     4     3    2
    16     2     7    1
    17     2     3    1
    18     9    22    1
    19     9    21    1
    20    16     7    1
    21     7    14    1
    22     3     8    1
    23    18     8    1
    24     8    19    1
    25     8    17    1
