@<TRIPOS>MOLECULE
1,2,3,4,5
 10 10 0 0 0
SMALL
GASTEIGER

@<TRIPOS>ATOM
      1 C           8.1311    0.7226    2.9419 C.2     1  UNL1       -0.0763
      2 C           7.9348    2.0744    2.6135 C.2     1  UNL1       -0.0654
      3 C           6.9535    2.5971    3.4670 C.2     1  UNL1       -0.0654
      4 C           6.5270    1.5728    4.3358 C.2     1  UNL1       -0.0763
      5 C           7.2706    0.4059    4.0232 C.3     1  UNL1        0.0054
      6 H           8.9317    0.1058    2.5562 H       1  UNL1        0.0578
      7 H           8.4988    2.6339    1.8803 H       1  UNL1        0.0615
      8 H           6.7016    3.6425    3.5518 H       1  UNL1        0.0615
      9 H           5.8877    1.7090    5.1969 H       1  UNL1        0.0578
     10 H           7.3295   -0.4835    4.6372 H       1  UNL1        0.0394
@<TRIPOS>BOND
     1     7     2    1
     2     6     1    1
     3     2     1    2
     4     2     3    1
     5     1     5    1
     6     3     8    1
     7     3     4    2
     8     5     4    1
     9     5    10    1
    10     4     9    1
