@<TRIPOS>MOLECULE
1,2,3,4,5
 10 10 0 0 0
SMALL
GASTEIGER

@<TRIPOS>ATOM
      1 C           2.2109    6.9264    5.9898 C.2     1  UNL1       -0.0837
      2 C           2.3417    6.9150    7.3888 C.2     1  UNL1       -0.0837
      3 C           1.0679    6.6757    7.9473 C.3     1  UNL1       -0.0127
      4 C           0.1459    6.5445    6.8794 C.3     1  UNL1       -0.0235
      5 C           0.8606    6.7069    5.6724 C.3     1  UNL1       -0.0127
      6 H           2.9946    7.1588    5.2856 H       1  UNL1        0.0572
      7 H           3.2328    7.1778    7.9378 H       1  UNL1        0.0572
      8 H           0.8065    6.7873    8.9914 H       1  UNL1        0.0352
      9 H          -0.9315    6.5468    6.9772 H       1  UNL1        0.0315
     10 H           0.4274    6.7754    4.6865 H       1  UNL1        0.0352
@<TRIPOS>BOND
     1    10     5    1
     2     6     1    1
     3     5     1    1
     4     5     4    1
     5     1     2    2
     6     4     9    1
     7     4     3    1
     8     2     7    1
     9     2     3    1
    10     3     8    1
