@<TRIPOS>MOLECULE
1,2,3,4,5
 10 10 0 0 0
SMALL
GASTEIGER

@<TRIPOS>ATOM
      1 C           1.1324    1.9551    7.4658 C.2     1  UNL1       -0.0763
      2 C          -0.1094    2.5159    7.1188 C.2     1  UNL1       -0.0654
      3 C          -0.4114    3.5274    8.0553 C.2     1  UNL1       -0.0654
      4 C           0.6519    3.5839    8.9884 C.2     1  UNL1       -0.0763
      5 C           1.6001    2.6045    8.6207 C.3     1  UNL1        0.0054
      6 H           1.5973    1.1075    6.9863 H       1  UNL1        0.0578
      7 H          -0.7760    2.1435    6.3564 H       1  UNL1        0.0615
      8 H          -1.3685    4.0200    8.1643 H       1  UNL1        0.0615
      9 H           0.6341    4.1207    9.9275 H       1  UNL1        0.0578
     10 H           2.4674    2.3196    9.1962 H       1  UNL1        0.0394
@<TRIPOS>BOND
     1     7     2    1
     2     6     1    1
     3     2     1    2
     4     2     3    1
     5     1     5    1
     6     3     8    1
     7     3     4    2
     8     5     4    1
     9     5    10    1
    10     4     9    1
