@<TRIPOS>MOLECULE
1,2,3,4,5
 25 25 0 0 0
SMALL
GASTEIGER

@<TRIPOS>ATOM
      1 C           1.9521   15.0732    3.8680 C.2     1  UNL1       -0.0477
      2 C           2.0063   15.4558    2.5063 C.2     1  UNL1       -0.0477
      3 C           3.2712   15.1245    1.9948 C.2     1  UNL1       -0.0584
      4 C           4.0647   14.5374    3.0527 C.3     1  UNL1        0.0231
      5 C           3.2056   14.5141    4.2306 C.2     1  UNL1       -0.0584
      6 C           0.8052   15.2036    4.8051 C.3     1  UNL1       -0.0395
      7 H          -0.0462   15.6860    4.3354 H       1  UNL1        0.0278
      8 H           1.0946   15.7876    5.6810 H       1  UNL1        0.0278
      9 H           0.4944   14.2202    5.1574 H       1  UNL1        0.0278
     10 C           0.9269   16.1024    1.7078 C.3     1  UNL1       -0.0395
     11 H           0.6136   15.4462    0.8962 H       1  UNL1        0.0278
     12 H           1.2884   17.0291    1.2607 H       1  UNL1        0.0278
     13 H           0.0585   16.3310    2.3177 H       1  UNL1        0.0278
     14 C           3.7094   15.2780    0.5805 C.3     1  UNL1       -0.0424
     15 H           4.7936   15.3410    0.5090 H       1  UNL1        0.0275
     16 H           3.2723   16.1671    0.1305 H       1  UNL1        0.0275
     17 H           3.3813   14.4176   -0.0050 H       1  UNL1        0.0275
     18 C           5.1498   13.5313    2.7912 C.3     1  UNL1       -0.0510
     19 H           4.7030   12.5926    2.4611 H       1  UNL1        0.0242
     20 H           5.7329   13.3313    3.6873 H       1  UNL1        0.0242
     21 H           5.8259   13.8750    2.0112 H       1  UNL1        0.0242
     22 C           3.4625   13.7237    5.4751 C.3     1  UNL1       -0.0424
     23 H           3.0297   14.2174    6.3440 H       1  UNL1        0.0275
     24 H           4.5291   13.5861    5.6426 H       1  UNL1        0.0275
     25 H           3.0041   12.7372    5.3903 H       1  UNL1        0.0275
@<TRIPOS>BOND
     1    17    14    1
     2    16    14    1
     3    15    14    1
     4    14     3    1
     5    11    10    1
     6    12    10    1
     7    10    13    1
     8    10     2    1
     9     3     2    2
    10     3     4    1
    11    21    18    1
    12    19    18    1
    13     2     1    1
    14    18     4    1
    15    18    20    1
    16     4     5    1
    17     1     5    2
    18     1     6    1
    19     5    22    1
    20     7     6    1
    21     6     9    1
    22     6     8    1
    23    25    22    1
    24    22    24    1
    25    22    23    1
