@<TRIPOS>MOLECULE
1,2,3,4,5
 25 25 0 0 0
SMALL
GASTEIGER

@<TRIPOS>ATOM
      1 C          12.7885   10.4960    5.8979 C.2     1  UNL1       -0.0584
      2 C          14.0025    9.7902    6.2252 C.2     1  UNL1       -0.0477
      3 C          14.1660    9.8599    7.6222 C.2     1  UNL1       -0.0477
      4 C          13.0901   10.6918    8.1662 C.2     1  UNL1       -0.0584
      5 C          12.2811   11.1154    7.0975 C.3     1  UNL1        0.0231
      6 C          12.3806   10.8873    4.5091 C.3     1  UNL1       -0.0424
      7 H          12.8543   11.8364    4.2480 H       1  UNL1        0.0275
      8 H          11.3029   11.0175    4.4285 H       1  UNL1        0.0275
      9 H          12.6928   10.1443    3.7782 H       1  UNL1        0.0275
     10 C          14.9666    9.2089    5.2372 C.3     1  UNL1       -0.0395
     11 H          15.6571    9.9844    4.8980 H       1  UNL1        0.0278
     12 H          14.4520    8.8102    4.3654 H       1  UNL1        0.0278
     13 H          15.5477    8.4060    5.6849 H       1  UNL1        0.0278
     14 C          15.3473    9.4178    8.4285 C.3     1  UNL1       -0.0395
     15 H          15.9242   10.2899    8.7427 H       1  UNL1        0.0278
     16 H          15.9939    8.7606    7.8519 H       1  UNL1        0.0278
     17 H          15.0188    8.8855    9.3216 H       1  UNL1        0.0278
     18 C          13.0601   11.1783    9.5813 C.3     1  UNL1       -0.0424
     19 H          13.9079   11.8429    9.7592 H       1  UNL1        0.0275
     20 H          13.1345   10.3388   10.2732 H       1  UNL1        0.0275
     21 H          12.1413   11.7215    9.7901 H       1  UNL1        0.0275
     22 C          11.1782   12.1270    7.1590 C.3     1  UNL1       -0.0510
     23 H          11.5977   13.1319    7.0727 H       1  UNL1        0.0242
     24 H          10.6394   12.0631    8.1020 H       1  UNL1        0.0242
     25 H          10.4673   11.9883    6.3475 H       1  UNL1        0.0242
@<TRIPOS>BOND
     1     9     6    1
     2     7     6    1
     3    12    10    1
     4     8     6    1
     5     6     1    1
     6    11    10    1
     7    10    13    1
     8    10     2    1
     9     1     2    2
    10     1     5    1
    11     2     3    1
    12    25    22    1
    13    23    22    1
    14     5    22    1
    15     5     4    1
    16    22    24    1
    17     3     4    2
    18     3    14    1
    19    16    14    1
    20     4    18    1
    21    14    15    1
    22    14    17    1
    23    18    19    1
    24    18    21    1
    25    18    20    1
