@<TRIPOS>MOLECULE
1,2,3,4,5
 25 25 0 0 0
SMALL
GASTEIGER

@<TRIPOS>ATOM
      1 C          -2.2480   10.0237    8.1697 C.2     1  UNL1       -0.0584
      2 C          -3.2161   10.9976    7.7366 C.2     1  UNL1       -0.0477
      3 C          -2.7796   12.2652    8.1715 C.2     1  UNL1       -0.0477
      4 C          -1.5152   12.0885    8.8212 C.2     1  UNL1       -0.0584
      5 C          -1.2393   10.6971    8.8998 C.3     1  UNL1        0.0231
      6 C          -2.4306    8.5441    8.0425 C.3     1  UNL1       -0.0424
      7 C          -4.5051   10.7149    7.0365 C.3     1  UNL1       -0.0395
      8 C          -3.5494   13.5389    8.0685 C.3     1  UNL1       -0.0395
      9 C          -0.7820   13.1663    9.5548 C.3     1  UNL1       -0.0424
     10 C          -0.1468   10.0759    9.7059 C.3     1  UNL1       -0.0510
     11 H          -3.2223    8.2077    8.7137 H       1  UNL1        0.0275
     12 H          -2.7128    8.2780    7.0265 H       1  UNL1        0.0275
     13 H          -1.5192    8.0100    8.2947 H       1  UNL1        0.0275
     14 H          -5.3331   10.6880    7.7462 H       1  UNL1        0.0278
     15 H          -4.7072   11.4916    6.3029 H       1  UNL1        0.0278
     16 H          -4.4613    9.7604    6.5201 H       1  UNL1        0.0278
     17 H          -4.2864   13.5967    8.8712 H       1  UNL1        0.0278
     18 H          -2.8940   14.4031    8.1459 H       1  UNL1        0.0278
     19 H          -4.0781   13.5935    7.1199 H       1  UNL1        0.0278
     20 H          -1.2513   13.3496   10.5231 H       1  UNL1        0.0275
     21 H           0.2549   12.8892    9.7323 H       1  UNL1        0.0275
     22 H          -0.7980   14.0999    8.9954 H       1  UNL1        0.0275
     23 H          -0.4625    9.9864   10.7474 H       1  UNL1        0.0242
     24 H           0.1026    9.0849    9.3397 H       1  UNL1        0.0242
     25 H           0.7546   10.6838    9.6823 H       1  UNL1        0.0242
@<TRIPOS>BOND
     1    15     7    1
     2    16     7    1
     3    12     6    1
     4     7     2    1
     5     7    14    1
     6    19     8    1
     7     2     1    2
     8     2     3    1
     9     6     1    1
    10     6    13    1
    11     6    11    1
    12     8    18    1
    13     8     3    1
    14     8    17    1
    15     1     5    1
    16     3     4    2
    17     4     5    1
    18     4     9    1
    19     5    10    1
    20    22     9    1
    21    24    10    1
    22     9    21    1
    23     9    20    1
    24    25    10    1
    25    10    23    1
