@<TRIPOS>MOLECULE
1,2,3,4,5
 25 25 0 0 0
SMALL
GASTEIGER

@<TRIPOS>ATOM
      1 C          11.1961    1.2845   53.3336 C.2     1  UNL1       -0.0584
      2 C          11.5604    2.6378   53.1826 C.3     1  UNL1        0.0231
      3 C          11.8882    2.8434   51.8069 C.2     1  UNL1       -0.0584
      4 C          11.6053    1.6427   51.0904 C.2     1  UNL1       -0.0477
      5 C          11.2169    0.6640   52.0319 C.2     1  UNL1       -0.0477
      6 C          10.7854    0.6415   54.6161 C.3     1  UNL1       -0.0424
      7 C          11.5923    3.6424   54.2862 C.3     1  UNL1       -0.0510
      8 C          12.2418    4.1353   51.1436 C.3     1  UNL1       -0.0424
      9 C          11.6870    1.5175   49.6061 C.3     1  UNL1       -0.0395
     10 C          10.7195   -0.7181   51.7495 C.3     1  UNL1       -0.0395
     11 H           9.7628    0.9160   54.8787 H       1  UNL1        0.0275
     12 H          10.8446   -0.4403   54.5427 H       1  UNL1        0.0275
     13 H          11.4431    0.9660   55.4194 H       1  UNL1        0.0275
     14 H          10.5774    3.9097   54.5834 H       1  UNL1        0.0242
     15 H          12.1002    3.2334   55.1579 H       1  UNL1        0.0242
     16 H          12.1092    4.5497   53.9835 H       1  UNL1        0.0242
     17 H          11.3928    4.5155   50.5738 H       1  UNL1        0.0275
     18 H          12.5266    4.8917   51.8709 H       1  UNL1        0.0275
     19 H          13.0720    3.9893   50.4531 H       1  UNL1        0.0275
     20 H          10.8898    2.0942   49.1344 H       1  UNL1        0.0278
     21 H          12.6395    1.9031   49.2465 H       1  UNL1        0.0278
     22 H          11.5930    0.4823   49.2934 H       1  UNL1        0.0278
     23 H           9.6319   -0.7454   51.8347 H       1  UNL1        0.0278
     24 H          10.9934   -1.0376   50.7483 H       1  UNL1        0.0278
     25 H          11.1311   -1.4312   52.4607 H       1  UNL1        0.0278
@<TRIPOS>BOND
     1    20     9    1
     2    21     9    1
     3    22     9    1
     4     9     4    1
     5    19     8    1
     6    17     8    1
     7    24    10    1
     8     4     3    2
     9     4     5    1
    10     8     3    1
    11     8    18    1
    12    10    23    1
    13    10     5    1
    14    10    25    1
    15     3     2    1
    16     5     1    2
    17     2     1    1
    18     2     7    1
    19     1     6    1
    20    16     7    1
    21     7    14    1
    22     7    15    1
    23    12     6    1
    24     6    11    1
    25     6    13    1
