@<TRIPOS>MOLECULE
1,2,3,4,5
 46 46 0 0 0
SMALL
GASTEIGER

@<TRIPOS>ATOM
      1 C           0.7609    3.4215    9.0256 C.2     1  UNL1        0.0000
      2 C          -0.1943    2.7705    8.2123 C.2     1  UNL1        0.0000
      3 C           0.3197    1.5353    7.7454 C.3     1  UNL1        0.0000
      4 C           1.6213    1.3796    8.3319 C.2     1  UNL1        0.0000
      5 C           1.8642    2.5329    9.1076 C.2     1  UNL1        0.0000
      6 SI          0.5525    4.9775   10.0683 Si      1  UNL1        0.0000
      7 C           1.4835    6.4837    9.3512 C.3     1  UNL1        0.0000
      8 C          -1.3177    5.3623   10.1922 C.3     1  UNL1        0.0000
      9 C           1.2408    4.5822   11.8058 C.3     1  UNL1        0.0000
     10 SI         -0.7353    0.2672    6.8271 Si      1  UNL1        0.0000
     11 C          -2.5480    0.8956    6.8242 C.3     1  UNL1        0.0000
     12 C          -0.1794    0.0187    5.0136 C.3     1  UNL1        0.0000
     13 C          -0.7722   -1.3788    7.7970 C.3     1  UNL1        0.0000
     14 SI          2.8488   -0.0633    8.4050 Si      1  UNL1        0.0000
     15 C           2.3945   -0.9899   10.0218 C.3     1  UNL1        0.0000
     16 C           2.8648   -1.3169    6.9640 C.3     1  UNL1        0.0000
     17 C           4.5920    0.6920    8.6283 C.3     1  UNL1        0.0000
     18 H          -1.2076    3.1155    8.0581 H       1  UNL1        0.0000
     19 H           2.7292    2.6846    9.7397 H       1  UNL1        0.0000
     20 H           2.4384    6.1793    8.9290 H       1  UNL1        0.0000
     21 H           1.6860    7.2163   10.1269 H       1  UNL1        0.0000
     22 H           0.9169    6.9861    8.5721 H       1  UNL1        0.0000
     23 H          -1.8695    4.5221   10.6019 H       1  UNL1        0.0000
     24 H          -1.7571    5.6062    9.2293 H       1  UNL1        0.0000
     25 H          -1.4845    6.2118   10.8461 H       1  UNL1        0.0000
     26 H           0.8127    3.6704   12.2115 H       1  UNL1        0.0000
     27 H           1.0213    5.3867   12.5005 H       1  UNL1        0.0000
     28 H           2.3190    4.4580   11.7804 H       1  UNL1        0.0000
     29 H          -2.6796    1.8224    6.2737 H       1  UNL1        0.0000
     30 H          -2.9153    1.0569    7.8332 H       1  UNL1        0.0000
     31 H          -3.1939    0.1566    6.3606 H       1  UNL1        0.0000
     32 H          -0.7350    0.6628    4.3369 H       1  UNL1        0.0000
     33 H          -0.3439   -1.0047    4.6898 H       1  UNL1        0.0000
     34 H           0.8773    0.2412    4.8876 H       1  UNL1        0.0000
     35 H           0.1963   -1.8626    7.8359 H       1  UNL1        0.0000
     36 H          -1.4689   -2.0695    7.3321 H       1  UNL1        0.0000
     37 H          -1.1033   -1.2209    8.8191 H       1  UNL1        0.0000
     38 H           3.1225   -1.7681   10.2243 H       1  UNL1        0.0000
     39 H           1.4192   -1.4603    9.9637 H       1  UNL1        0.0000
     40 H           2.3833   -0.3204   10.8762 H       1  UNL1        0.0000
     41 H           3.6331   -1.0578    6.2437 H       1  UNL1        0.0000
     42 H           1.9246   -1.3590    6.4278 H       1  UNL1        0.0000
     43 H           3.0824   -2.3122    7.3392 H       1  UNL1        0.0000
     44 H           4.7335    1.5525    7.9781 H       1  UNL1        0.0000
     45 H           5.3648   -0.0316    8.3876 H       1  UNL1        0.0000
     46 H           4.7609    1.0186    9.6506 H       1  UNL1        0.0000
@<TRIPOS>BOND
     1    32    12    1
     2    33    12    1
     3    34    12    1
     4    12    10    1
     5    41    16    1
     6    29    11    1
     7    31    11    1
     8    42    16    1
     9    11    10    1
    10    11    30    1
    11    10     3    1
    12    10    13    1
    13    16    43    1
    14    16    14    1
    15    36    13    1
    16     3     2    1
    17     3     4    1
    18    13    35    1
    19    13    37    1
    20    44    17    1
    21    18     2    1
    22     2     1    2
    23     4    14    1
    24     4     5    2
    25    45    17    1
    26    14    17    1
    27    14    15    1
    28    22     7    1
    29    17    46    1
    30    20     7    1
    31     1     5    1
    32     1     6    1
    33     5    19    1
    34    24     8    1
    35     7     6    1
    36     7    21    1
    37    39    15    1
    38    15    38    1
    39    15    40    1
    40     6     8    1
    41     6     9    1
    42     8    23    1
    43     8    25    1
    44    28     9    1
    45     9    26    1
    46     9    27    1
