@<TRIPOS>MOLECULE
1,2,3,4,5
 10 10 0 0 0
SMALL
GASTEIGER

@<TRIPOS>ATOM
      1 C          -0.1303    3.7891    5.4888 C.2     1  UNL1       -0.0763
      2 C           0.1869    4.9131    6.2909 C.3     1  UNL1        0.0054
      3 C           1.4553    5.3768    5.9010 C.2     1  UNL1       -0.0763
      4 C           1.9300    4.5402    4.8718 C.2     1  UNL1       -0.0654
      5 C           0.9428    3.5702    4.6075 C.2     1  UNL1       -0.0654
      6 H          -1.0881    3.2904    5.4429 H       1  UNL1        0.0578
      7 H          -0.4862    5.4178    6.9698 H       1  UNL1        0.0394
      8 H           1.9477    6.2694    6.2609 H       1  UNL1        0.0578
      9 H           2.8590    4.6651    4.3292 H       1  UNL1        0.0615
     10 H           0.9736    2.8399    3.8100 H       1  UNL1        0.0615
@<TRIPOS>BOND
     1    10     5    1
     2     9     4    1
     3     5     4    1
     4     5     1    2
     5     4     3    2
     6     6     1    1
     7     1     2    1
     8     3     8    1
     9     3     2    1
    10     2     7    1
