@<TRIPOS>MOLECULE
1,2,3,4,5
 25 25 0 0 0
SMALL
GASTEIGER

@<TRIPOS>ATOM
      1 C           4.6030    8.4332   15.8352 C.3     1  UNL1        0.0231
      2 C           5.7170    9.3192   15.9201 C.2     1  UNL1       -0.0584
      3 C           6.5031    8.9359   17.0460 C.2     1  UNL1       -0.0477
      4 C           5.8392    7.8402   17.6906 C.2     1  UNL1       -0.0477
      5 C           4.6599    7.5418   16.9573 C.2     1  UNL1       -0.0584
      6 C           3.4629    8.5633   14.8652 C.3     1  UNL1       -0.0510
      7 C           5.9361   10.5087   15.0324 C.3     1  UNL1       -0.0424
      8 C           7.6265    9.7480   17.6285 C.3     1  UNL1       -0.0395
      9 C           6.2094    7.1950   18.9948 C.3     1  UNL1       -0.0395
     10 C           3.5847    6.5983   17.4120 C.3     1  UNL1       -0.0424
     11 H           3.8137    8.9672   13.9159 H       1  UNL1        0.0242
     12 H           6.9051   10.9651   15.2201 H       1  UNL1        0.0275
     13 H           8.2845   10.1364   16.8522 H       1  UNL1        0.0278
     14 H           5.5913    7.5955   19.8010 H       1  UNL1        0.0278
     15 H           2.8139    6.4879   16.6527 H       1  UNL1        0.0275
     16 H           2.7002    9.2351   15.2651 H       1  UNL1        0.0242
     17 H           3.0016    7.5945   14.6716 H       1  UNL1        0.0242
     18 H           5.1624   11.2573   15.2112 H       1  UNL1        0.0275
     19 H           5.8924   10.2185   13.9808 H       1  UNL1        0.0275
     20 H           8.2265    9.1610   18.3209 H       1  UNL1        0.0278
     21 H           7.2141   10.5968   18.1780 H       1  UNL1        0.0278
     22 H           7.2528    7.3738   19.2479 H       1  UNL1        0.0278
     23 H           6.0463    6.1177   18.9476 H       1  UNL1        0.0278
     24 H           3.1209    6.9787   18.3238 H       1  UNL1        0.0275
     25 H           3.9953    5.6097   17.6244 H       1  UNL1        0.0275
@<TRIPOS>BOND
     1    11     6    1
     2    19     7    1
     3    17     6    1
     4     6    16    1
     5     6     1    1
     6     7    18    1
     7     7    12    1
     8     7     2    1
     9     1     2    1
    10     1     5    1
    11     2     3    2
    12    15    10    1
    13    13     8    1
    14     5    10    1
    15     5     4    2
    16     3     8    1
    17     3     4    1
    18    10    25    1
    19    10    24    1
    20     8    21    1
    21     8    20    1
    22     4     9    1
    23    23     9    1
    24     9    22    1
    25     9    14    1
