@<TRIPOS>MOLECULE
2,3,4,5,6
 22 22 0 0 0
SMALL
GASTEIGER

@<TRIPOS>ATOM
      1 SI          0.5877    3.0825    7.7824 Si      1  UNL1        0.0000
      2 C           1.3975    4.2142    9.0574 C.2     1  UNL1        0.0000
      3 C           1.7907    5.5715    8.8824 C.2     1  UNL1        0.0000
      4 C           2.1660    6.0995   10.1342 C.2     1  UNL1        0.0000
      5 C           2.0328    5.0652   11.0931 C.2     1  UNL1        0.0000
      6 C           1.5476    3.9218   10.4287 C.3     1  UNL1        0.0000
      7 C           0.9352    3.7202    6.0178 C.3     1  UNL1        0.0000
      8 C          -1.2912    3.1736    8.1197 C.3     1  UNL1        0.0000
      9 C           1.1873    1.2892    8.0388 C.3     1  UNL1        0.0000
     10 H           1.6434    6.1469    7.9758 H       1  UNL1        0.0000
     11 H           2.3665    7.1410   10.3522 H       1  UNL1        0.0000
     12 H           2.1241    5.1787   12.1656 H       1  UNL1        0.0000
     13 H           1.2720    2.9884   10.9032 H       1  UNL1        0.0000
     14 H           1.9996    3.7594    5.8068 H       1  UNL1        0.0000
     15 H           0.5244    4.7146    5.8646 H       1  UNL1        0.0000
     16 H           0.4796    3.0647    5.2821 H       1  UNL1        0.0000
     17 H          -1.6695    4.1868    8.0253 H       1  UNL1        0.0000
     18 H          -1.5347    2.8239    9.1180 H       1  UNL1        0.0000
     19 H          -1.8312    2.5533    7.4126 H       1  UNL1        0.0000
     20 H           1.0535    0.9659    9.0684 H       1  UNL1        0.0000
     21 H           2.2409    1.1826    7.7983 H       1  UNL1        0.0000
     22 H           0.6322    0.6034    7.4059 H       1  UNL1        0.0000
@<TRIPOS>BOND
     1    16     7    1
     2    14     7    1
     3    15     7    1
     4     7     1    1
     5    22     9    1
     6    19     8    1
     7     1     9    1
     8     1     8    1
     9     1     2    1
    10    21     9    1
    11    10     3    1
    12    17     8    1
    13     9    20    1
    14     8    18    1
    15     3     2    2
    16     3     4    1
    17     2     6    1
    18     4    11    1
    19     4     5    2
    20     6    13    1
    21     6     5    1
    22     5    12    1
