@<TRIPOS>MOLECULE
1,2,3,5,6
 46 46 0 0 0
SMALL
GASTEIGER

@<TRIPOS>ATOM
      1 C          13.8066    9.0227    9.1404 C.2     1  UNL1        0.0000
      2 C          13.3922    7.9756   10.0381 C.3     1  UNL1        0.0000
      3 C          12.9377    6.8938    9.2290 C.2     1  UNL1        0.0000
      4 H          12.6487    5.9182    9.5957 H       1  UNL1        0.0000
      5 C          13.0501    7.2382    7.8590 C.2     1  UNL1        0.0000
      6 C          13.5886    8.5474    7.8192 C.2     1  UNL1        0.0000
      7 H          13.8831    9.0662    6.9178 H       1  UNL1        0.0000
      8 SI         14.4980   10.7450    9.4775 Si      1  UNL1        0.0000
      9 C          13.0622   11.8644   10.0449 C.3     1  UNL1        0.0000
     10 H          12.2153   11.7695    9.3625 H       1  UNL1        0.0000
     11 H          12.7104   11.6216   11.0423 H       1  UNL1        0.0000
     12 H          13.3558   12.9102   10.0502 H       1  UNL1        0.0000
     13 C          15.9446   10.6508   10.7207 C.3     1  UNL1        0.0000
     14 H          16.8916   10.5917   10.1939 H       1  UNL1        0.0000
     15 H          15.9778   11.5370   11.3459 H       1  UNL1        0.0000
     16 H          15.8788    9.7839   11.3694 H       1  UNL1        0.0000
     17 C          15.1521   11.4429    7.8242 C.3     1  UNL1        0.0000
     18 H          14.3464   11.6010    7.1131 H       1  UNL1        0.0000
     19 H          15.6360   12.4015    7.9829 H       1  UNL1        0.0000
     20 H          15.8823   10.7838    7.3646 H       1  UNL1        0.0000
     21 SI         13.2725    7.8241   11.9214 Si      1  UNL1        0.0000
     22 C          14.7549    6.7683   12.5016 C.3     1  UNL1        0.0000
     23 H          15.6939    7.2988   12.3836 H       1  UNL1        0.0000
     24 H          14.6534    6.5140   13.5509 H       1  UNL1        0.0000
     25 H          14.8333    5.8411   11.9433 H       1  UNL1        0.0000
     26 C          11.6410    6.8508   12.1739 C.3     1  UNL1        0.0000
     27 H          11.7929    5.7776   12.1006 H       1  UNL1        0.0000
     28 H          11.2125    7.0450   13.1520 H       1  UNL1        0.0000
     29 H          10.8920    7.1329   11.4291 H       1  UNL1        0.0000
     30 C          13.2106    9.4349   12.9358 C.3     1  UNL1        0.0000
     31 H          14.0231   10.1133   12.7043 H       1  UNL1        0.0000
     32 H          12.2744    9.9595   12.7788 H       1  UNL1        0.0000
     33 H          13.2780    9.1949   13.9927 H       1  UNL1        0.0000
     34 SI         12.4175    6.2767    6.3652 Si      1  UNL1        0.0000
     35 C          11.1777    7.4413    5.4998 C.3     1  UNL1        0.0000
     36 H          11.6529    8.3671    5.1832 H       1  UNL1        0.0000
     37 H          10.7431    6.9833    4.6163 H       1  UNL1        0.0000
     38 H          10.3563    7.7030    6.1666 H       1  UNL1        0.0000
     39 C          13.8824    5.8949    5.2052 C.3     1  UNL1        0.0000
     40 H          14.3876    6.7992    4.8821 H       1  UNL1        0.0000
     41 H          14.6185    5.2632    5.6910 H       1  UNL1        0.0000
     42 H          13.5387    5.3756    4.3174 H       1  UNL1        0.0000
     43 C          11.5818    4.6707    6.9562 C.3     1  UNL1        0.0000
     44 H          10.7515    4.8851    7.6225 H       1  UNL1        0.0000
     45 H          11.1909    4.1091    6.1140 H       1  UNL1        0.0000
     46 H          12.2790    4.0252    7.4818 H       1  UNL1        0.0000
@<TRIPOS>BOND
     1    42    39    1
     2    37    35    1
     3    40    39    1
     4    36    35    1
     5    39    41    1
     6    39    34    1
     7    35    38    1
     8    35    34    1
     9    45    43    1
    10    34    43    1
    11    34     5    1
    12     7     6    1
    13    43    46    1
    14    43    44    1
    15    18    17    1
    16    20    17    1
    17     6     5    1
    18     6     1    2
    19    17    19    1
    20    17     8    1
    21     5     3    2
    22     1     8    1
    23     1     2    1
    24     3     4    1
    25     3     2    1
    26    10     9    1
    27     8     9    1
    28     8    13    1
    29     2    21    1
    30     9    12    1
    31     9    11    1
    32    14    13    1
    33    13    15    1
    34    13    16    1
    35    29    26    1
    36    21    26    1
    37    21    22    1
    38    21    30    1
    39    25    22    1
    40    27    26    1
    41    26    28    1
    42    23    22    1
    43    22    24    1
    44    31    30    1
    45    32    30    1
    46    30    33    1
