@<TRIPOS>MOLECULE
24,26,28,29,31
 53 55 0 0 0
SMALL
GASTEIGER

@<TRIPOS>ATOM
      1 SI          0.9173    5.6512   25.7826 Si      1  UNL1        0.0000
      2 N           0.4430    6.0146   23.5283 N.3     1  UNL1        0.0000
      3 O          -0.7230    5.5872   25.8444 O.3     1  UNL1        0.0000
      4 O           1.6445    7.1117   25.5882 O.3     1  UNL1        0.0000
      5 O           1.6949    4.3450   25.1460 O.3     1  UNL1        0.0000
      6 C          -1.5843    5.9876   24.8253 C.3     1  UNL1        0.0000
      7 H          -1.7732    7.0638   24.9231 H       1  UNL1        0.0000
      8 H          -2.5314    5.4546   24.9470 H       1  UNL1        0.0000
      9 C           1.8785    7.7540   24.3735 C.3     1  UNL1        0.0000
     10 H           1.9208    8.8305   24.5589 H       1  UNL1        0.0000
     11 H           2.8501    7.4279   23.9800 H       1  UNL1        0.0000
     12 C           1.5460    3.8967   23.8344 C.3     1  UNL1        0.0000
     13 H           2.4414    3.3316   23.5609 H       1  UNL1        0.0000
     14 H           0.6801    3.2247   23.7848 H       1  UNL1        0.0000
     15 C           0.7578    7.4166   23.3784 C.3     1  UNL1        0.0000
     16 H           1.0581    7.6778   22.3556 H       1  UNL1        0.0000
     17 H          -0.1272    7.9954   23.6452 H       1  UNL1        0.0000
     18 C           1.3503    5.0909   22.8896 C.3     1  UNL1        0.0000
     19 H           0.9927    4.7505   21.9092 H       1  UNL1        0.0000
     20 H           2.3112    5.5907   22.7592 H       1  UNL1        0.0000
     21 C          -0.9584    5.6730   23.4585 C.3     1  UNL1        0.0000
     22 H          -1.4875    6.2085   22.6601 H       1  UNL1        0.0000
     23 H          -1.0414    4.6004   23.2767 H       1  UNL1        0.0000
     24 C           2.9758    5.1734   29.3897 C.3     1  UNL1        0.0000
     25 H           4.0034    5.2936   29.7248 H       1  UNL1        0.0000
     26 C           2.6515    5.5141   28.0781 C.3     1  UNL1        0.0000
     27 H           3.3966    5.9554   27.4204 H       1  UNL1        0.0000
     28 C           1.3267    5.3702   27.5963 C.3     1  UNL1        0.0000
     29 C           0.3685    4.8884   28.5274 C.3     1  UNL1        0.0000
     30 H          -0.6717    4.8430   28.2176 H       1  UNL1        0.0000
     31 C           0.7391    4.5480   29.8216 C.3     1  UNL1        0.0000
     32 H          -0.0219    4.1844   30.5074 H       1  UNL1        0.0000
     33 C           2.1596    4.0882   30.0505 C.3     1  UNL1        0.0000
     34 H           2.3834    4.0215   31.1201 H       1  UNL1        0.0000
     35 C           2.4320    2.6968   29.4214 C.3     1  UNL1        0.0000
     36 H           3.4722    2.4220   29.6035 H       1  UNL1        0.0000
     37 H           2.2369    2.7288   28.3478 H       1  UNL1        0.0000
     38 C           1.5208    1.6689   30.0544 C.2     1  UNL1        0.0000
     39 O           0.5814    1.1647   29.4934 O.2     1  UNL1        0.0000
     40 O           1.8951    1.4420   31.3096 O.3     1  UNL1        0.0000
     41 C           1.1435    0.5567   32.1798 C.3     1  UNL1        0.0000
     42 C           1.1566   -0.8650   31.6199 C.3     1  UNL1        0.0000
     43 H           2.1816   -1.1973   31.4684 H       1  UNL1        0.0000
     44 H           0.6314   -0.9014   30.6695 H       1  UNL1        0.0000
     45 H           0.6681   -1.5376   32.3194 H       1  UNL1        0.0000
     46 C           1.8933    0.6191   33.5107 C.3     1  UNL1        0.0000
     47 H           1.4089   -0.0223   34.2409 H       1  UNL1        0.0000
     48 H           1.9034    1.6391   33.8858 H       1  UNL1        0.0000
     49 H           2.9207    0.2912   33.3758 H       1  UNL1        0.0000
     50 C          -0.2857    1.0718   32.3453 C.3     1  UNL1        0.0000
     51 H          -0.8152    1.0323   31.3972 H       1  UNL1        0.0000
     52 H          -0.2735    2.1004   32.7009 H       1  UNL1        0.0000
     53 H          -0.8136    0.4570   33.0689 H       1  UNL1        0.0000
@<TRIPOS>BOND
     1    19    18    1
     2    16    15    1
     3    22    21    1
     4    20    18    1
     5    18     2    1
     6    18    12    1
     7    23    21    1
     8    15     2    1
     9    15    17    1
    10    15     9    1
    11    21     2    1
    12    21     6    1
    13    13    12    1
    14    14    12    1
    15    12     5    1
    16    11     9    1
    17     9    10    1
    18     9     4    1
    19     6     7    1
    20     6     8    1
    21     6     3    1
    22     5     1    1
    23     4     1    1
    24     1     3    1
    25     1    28    1
    26    27    26    1
    27    28    26    1
    28    28    29    1
    29    26    24    1
    30    30    29    1
    31    37    35    1
    32    29    31    1
    33    24    25    1
    34    24    33    1
    35    35    36    1
    36    35    33    1
    37    35    38    1
    38    39    38    2
    39    31    33    1
    40    31    32    1
    41    33    34    1
    42    38    40    1
    43    44    42    1
    44    40    41    1
    45    51    50    1
    46    43    42    1
    47    42    41    1
    48    42    45    1
    49    41    50    1
    50    41    46    1
    51    50    52    1
    52    50    53    1
    53    49    46    1
    54    46    48    1
    55    46    47    1
