@<TRIPOS>MOLECULE
1,2,3,4,5
 25 25 0 0 0
SMALL
GASTEIGER

@<TRIPOS>ATOM
      1 C           5.5298    7.1912    9.6941 C.3     1  UNL1        0.0052
      2 C           5.5716    8.4882   10.2549 C.2     1  UNL1       -0.0658
      3 C           4.2736    9.0555   10.1714 C.2     1  UNL1       -0.0658
      4 C           4.2038    6.9578    9.2253 C.3     1  UNL1       -0.0053
      5 C           3.4293    8.1243    9.5009 C.3     1  UNL1        0.0052
      6 C           6.7298    6.3126    9.4765 C.3     1  UNL1       -0.0545
      7 H           7.3257    6.6901    8.6417 H       1  UNL1        0.0239
      8 H           6.4364    5.2889    9.2511 H       1  UNL1        0.0239
      9 H           7.3658    6.2957   10.3635 H       1  UNL1        0.0239
     10 C           6.8167    9.2022   10.6946 C.3     1  UNL1       -0.0430
     11 H           7.3268    9.6289    9.8270 H       1  UNL1        0.0275
     12 H           7.5070    8.5198   11.1892 H       1  UNL1        0.0275
     13 H           6.5831   10.0082   11.3866 H       1  UNL1        0.0275
     14 C           2.0397    8.3732    8.9784 C.3     1  UNL1       -0.0545
     15 H           1.9910    8.1076    7.9207 H       1  UNL1        0.0239
     16 H           1.7785    9.4263    9.0693 H       1  UNL1        0.0239
     17 H           1.2863    7.7809    9.5056 H       1  UNL1        0.0239
     18 C           3.7482    5.7687    8.4267 C.3     1  UNL1       -0.0574
     19 H           3.9083    5.9404    7.3583 H       1  UNL1        0.0236
     20 H           2.6893    5.5786    8.5897 H       1  UNL1        0.0236
     21 H           4.3066    4.8758    8.7098 H       1  UNL1        0.0236
     22 C           3.9456   10.4609   10.5943 C.3     1  UNL1       -0.0430
     23 H           4.5261   11.1776   10.0094 H       1  UNL1        0.0275
     24 H           4.1926   10.6177   11.6493 H       1  UNL1        0.0275
     25 H           2.8899   10.6877   10.4548 H       1  UNL1        0.0275
@<TRIPOS>BOND
     1    19    18    1
     2    15    14    1
     3    18    20    1
     4    18    21    1
     5    18     4    1
     6     7     6    1
     7    14    16    1
     8    14     5    1
     9    14    17    1
    10     4     5    1
    11     4     1    1
    12     8     6    1
    13     6     1    1
    14     6     9    1
    15     5     3    1
    16     1     2    1
    17    11    10    1
    18    23    22    1
    19     3     2    2
    20     3    22    1
    21     2    10    1
    22    25    22    1
    23    22    24    1
    24    10    12    1
    25    10    13    1
