@<TRIPOS>MOLECULE
1,2,3,4,5
 25 25 0 0 0
SMALL
GASTEIGER

@<TRIPOS>ATOM
      1 C           7.6650    7.6019   13.3969 C.2     1  UNL1       -0.0584
      2 C           7.3487    6.2825   12.9086 C.2     1  UNL1       -0.0477
      3 C           8.4667    5.4391   13.1870 C.2     1  UNL1       -0.0477
      4 C           9.4487    6.2060   13.8845 C.2     1  UNL1       -0.0584
      5 C           8.9539    7.5492   14.0009 C.3     1  UNL1        0.0231
      6 C           6.9254    8.8566   13.0318 C.3     1  UNL1       -0.0424
      7 H           7.3092    9.2424   12.0834 H       1  UNL1        0.0275
      8 H           7.0538    9.6309   13.7867 H       1  UNL1        0.0275
      9 H           5.8594    8.6711   12.9132 H       1  UNL1        0.0275
     10 C           6.2512    5.9670   11.9296 C.3     1  UNL1       -0.0395
     11 H           5.9735    4.9151   11.9739 H       1  UNL1        0.0278
     12 H           6.5886    6.1871   10.9128 H       1  UNL1        0.0278
     13 H           5.3594    6.5599   12.1257 H       1  UNL1        0.0278
     14 C           8.6823    4.0681   12.6173 C.3     1  UNL1       -0.0395
     15 H           9.1458    4.1571   11.6310 H       1  UNL1        0.0278
     16 H           7.7421    3.5311   12.5052 H       1  UNL1        0.0278
     17 H           9.3396    3.4747   13.2497 H       1  UNL1        0.0278
     18 C          10.8651    5.7804   14.1379 C.3     1  UNL1       -0.0424
     19 H          11.4727    5.9663   13.2476 H       1  UNL1        0.0275
     20 H          10.9214    4.7189   14.3723 H       1  UNL1        0.0275
     21 H          11.3015    6.3332   14.9683 H       1  UNL1        0.0275
     22 C           9.7781    8.7366   14.4091 C.3     1  UNL1       -0.0510
     23 H          10.4563    8.4909   15.2253 H       1  UNL1        0.0242
     24 H           9.1493    9.5663   14.7287 H       1  UNL1        0.0242
     25 H          10.3796    9.0727   13.5600 H       1  UNL1        0.0242
@<TRIPOS>BOND
     1    12    10    1
     2    15    14    1
     3    10    11    1
     4    10    13    1
     5    10     2    1
     6     7     6    1
     7    16    14    1
     8    14     3    1
     9    14    17    1
    10     2     3    1
    11     2     1    2
    12     9     6    1
    13     6     1    1
    14     6     8    1
    15     3     4    2
    16    19    18    1
    17     1     5    1
    18    25    22    1
    19     4     5    1
    20     4    18    1
    21     5    22    1
    22    18    20    1
    23    18    21    1
    24    22    24    1
    25    22    23    1
