@<TRIPOS>MOLECULE
1,2,3,4,5
 25 25 0 0 0
SMALL
GASTEIGER

@<TRIPOS>ATOM
      1 C           1.3463    2.2956    7.4829 C.2     1  UNL1       -0.0584
      2 C           0.3140    1.8537    8.3686 C.3     1  UNL1        0.0231
      3 C           0.8821    1.7213    9.6806 C.2     1  UNL1       -0.0584
      4 C           2.2559    2.0761    9.5961 C.2     1  UNL1       -0.0477
      5 C           2.5459    2.4693    8.2562 C.2     1  UNL1       -0.0477
      6 C           1.2859    2.2287    5.9861 C.3     1  UNL1       -0.0424
      7 H           1.4143    1.1910    5.6673 H       1  UNL1        0.0275
      8 H           2.0774    2.8226    5.5367 H       1  UNL1        0.0275
      9 H           0.3322    2.5889    5.6071 H       1  UNL1        0.0275
     10 C          -1.0190    1.2974    7.9551 C.3     1  UNL1       -0.0510
     11 H          -1.3297    1.6973    6.9929 H       1  UNL1        0.0242
     12 H          -1.7915    1.5279    8.6874 H       1  UNL1        0.0242
     13 H          -0.9482    0.2103    7.8689 H       1  UNL1        0.0242
     14 C           0.2186    1.0461   10.8444 C.3     1  UNL1       -0.0424
     15 H           0.3455   -0.0370   10.7675 H       1  UNL1        0.0275
     16 H          -0.8486    1.2593   10.8650 H       1  UNL1        0.0275
     17 H           0.6505    1.3691   11.7904 H       1  UNL1        0.0275
     18 C           3.2519    1.8635   10.6989 C.3     1  UNL1       -0.0395
     19 H           2.8475    2.1541   11.6692 H       1  UNL1        0.0278
     20 H           4.1692    2.4255   10.5322 H       1  UNL1        0.0278
     21 H           3.5102    0.8030   10.7506 H       1  UNL1        0.0278
     22 C           3.9153    2.6284    7.6558 C.3     1  UNL1       -0.0395
     23 H           4.6682    2.8114    8.4208 H       1  UNL1        0.0278
     24 H           3.9421    3.4540    6.9450 H       1  UNL1        0.0278
     25 H           4.1943    1.7151    7.1246 H       1  UNL1        0.0278
@<TRIPOS>BOND
     1     8     6    1
     2     9     6    1
     3     7     6    1
     4     6     1    1
     5    24    22    1
     6    11    10    1
     7    25    22    1
     8     1     5    2
     9     1     2    1
    10    22     5    1
    11    22    23    1
    12    13    10    1
    13    10     2    1
    14    10    12    1
    15     5     4    1
    16     2     3    1
    17     4     3    2
    18     4    18    1
    19     3    14    1
    20    20    18    1
    21    18    21    1
    22    18    19    1
    23    15    14    1
    24    14    16    1
    25    14    17    1
