@<TRIPOS>MOLECULE
1,2,3,4,5
 25 25 0 0 0
SMALL
GASTEIGER

@<TRIPOS>ATOM
      1 C           3.0187    8.8711    8.1845 C.2     1  UNL1       -0.0658
      2 C           3.6663    8.0524    9.1766 C.3     1  UNL1        0.0052
      3 C           5.0187    7.8489    8.7608 C.3     1  UNL1       -0.0053
      4 C           5.2268    8.5645    7.5429 C.3     1  UNL1        0.0052
      5 C           3.9887    9.1996    7.1920 C.2     1  UNL1       -0.0658
      6 C           1.5341    9.0083    8.0202 C.3     1  UNL1       -0.0430
      7 H           1.2772    9.8825    7.4262 H       1  UNL1        0.0275
      8 H           1.0336    9.0911    8.9823 H       1  UNL1        0.0275
      9 H           1.1462    8.1224    7.5111 H       1  UNL1        0.0275
     10 C           2.9508    7.2425   10.2186 C.3     1  UNL1       -0.0545
     11 H           2.5568    6.3292    9.7657 H       1  UNL1        0.0239
     12 H           2.1199    7.7983   10.6471 H       1  UNL1        0.0239
     13 H           3.6206    6.9602   11.0283 H       1  UNL1        0.0239
     14 C           5.9710    6.8532    9.3571 C.3     1  UNL1       -0.0574
     15 H           5.8077    5.8756    8.8969 H       1  UNL1        0.0236
     16 H           5.8201    6.7522   10.4306 H       1  UNL1        0.0236
     17 H           7.0073    7.1385    9.1841 H       1  UNL1        0.0236
     18 C           6.4214    8.4386    6.6449 C.3     1  UNL1       -0.0545
     19 H           7.3326    8.2779    7.2179 H       1  UNL1        0.0239
     20 H           6.5554    9.3315    6.0370 H       1  UNL1        0.0239
     21 H           6.2883    7.5873    5.9726 H       1  UNL1        0.0239
     22 C           3.6946    9.8308    5.8606 C.3     1  UNL1       -0.0430
     23 H           3.4250    9.0530    5.1421 H       1  UNL1        0.0275
     24 H           4.5608   10.3639    5.4717 H       1  UNL1        0.0275
     25 H           2.8653   10.5328    5.9280 H       1  UNL1        0.0275
@<TRIPOS>BOND
     1    23    22    1
     2    24    22    1
     3    22    25    1
     4    22     5    1
     5    21    18    1
     6    20    18    1
     7    18    19    1
     8    18     4    1
     9     5     4    1
    10     5     1    2
    11     7     6    1
    12     9     6    1
    13     4     3    1
    14     6     1    1
    15     6     8    1
    16     1     2    1
    17     3     2    1
    18     3    14    1
    19    15    14    1
    20     2    10    1
    21    17    14    1
    22    14    16    1
    23    11    10    1
    24    10    12    1
    25    10    13    1
