@<TRIPOS>MOLECULE
1,2,3,4,5
 28 28 0 0 0
SMALL
GASTEIGER

@<TRIPOS>ATOM
      1 C           9.9280   12.0528    9.7908 C.2     1  UNL1       -0.0449
      2 C           9.7242   11.6856   11.1618 C.2     1  UNL1       -0.0475
      3 C           8.4108   12.1023   11.5415 C.2     1  UNL1       -0.0584
      4 C           7.7929   12.7032   10.3962 C.3     1  UNL1        0.0231
      5 C           8.7419   12.6896    9.3224 C.2     1  UNL1       -0.0582
      6 C          11.2505   12.0388    9.0762 C.3     1  UNL1       -0.0303
      7 H          11.0965   11.9223    8.0009 H       1  UNL1        0.0311
      8 H          11.8525   11.1925    9.4141 H       1  UNL1        0.0311
      9 C          12.0105   13.3418    9.3388 C.3     1  UNL1       -0.0613
     10 H          11.4352   14.1962    8.9892 H       1  UNL1        0.0233
     11 H          12.9650   13.3319    8.8179 H       1  UNL1        0.0233
     12 H          12.1995   13.4678   10.4024 H       1  UNL1        0.0233
     13 C          10.8178   11.3513   12.1343 C.3     1  UNL1       -0.0395
     14 H          11.2617   12.2782   12.5077 H       1  UNL1        0.0278
     15 H          11.6035   10.7614   11.6668 H       1  UNL1        0.0278
     16 H          10.4358   10.7964   12.9884 H       1  UNL1        0.0278
     17 C           7.9358   12.1622   12.9643 C.3     1  UNL1       -0.0424
     18 H           8.0852   11.2094   13.4724 H       1  UNL1        0.0275
     19 H           6.8794   12.4140   13.0261 H       1  UNL1        0.0275
     20 H           8.5006   12.9275   13.5029 H       1  UNL1        0.0275
     21 C           6.5616   13.5646   10.3866 C.3     1  UNL1       -0.0510
     22 H           6.0039   13.4820   11.3173 H       1  UNL1        0.0242
     23 H           5.8972   13.3147    9.5592 H       1  UNL1        0.0242
     24 H           6.8587   14.6095   10.2689 H       1  UNL1        0.0242
     25 C           8.5803   13.4392    8.0329 C.3     1  UNL1       -0.0424
     26 H           8.8138   14.4959    8.1898 H       1  UNL1        0.0275
     27 H           7.5583   13.3728    7.6634 H       1  UNL1        0.0275
     28 H           9.2476   13.0521    7.2658 H       1  UNL1        0.0275
@<TRIPOS>BOND
     1    28    25    1
     2    27    25    1
     3     7     6    1
     4    25    26    1
     5    25     5    1
     6    11     9    1
     7    10     9    1
     8     6     9    1
     9     6     8    1
    10     6     1    1
    11     5     1    2
    12     5     4    1
    13     9    12    1
    14    23    21    1
    15     1     2    1
    16    24    21    1
    17    21     4    1
    18    21    22    1
    19     4     3    1
    20     2     3    2
    21     2    13    1
    22     3    17    1
    23    15    13    1
    24    13    14    1
    25    13    16    1
    26    17    19    1
    27    17    18    1
    28    17    20    1
