@<TRIPOS>MOLECULE
1,2,3,4,5
 25 25 0 0 0
SMALL
GASTEIGER

@<TRIPOS>ATOM
      1 C           6.3961    8.8054    7.5680 C.2     1  UNL1       -0.0477
      2 C           7.1970    9.4634    6.5898 C.2     1  UNL1       -0.0584
      3 C           7.0693   10.8654    6.8003 C.3     1  UNL1        0.0231
      4 C           6.2171   11.0739    7.9248 C.2     1  UNL1       -0.0584
      5 C           5.7930    9.8018    8.3883 C.2     1  UNL1       -0.0477
      6 C           6.3111    7.3347    7.8561 C.3     1  UNL1       -0.0395
      7 H           6.7630    7.1231    8.8285 H       1  UNL1        0.0278
      8 H           5.2711    7.0034    7.8914 H       1  UNL1        0.0278
      9 H           6.8348    6.7519    7.1021 H       1  UNL1        0.0278
     10 C           8.1285    8.8253    5.5985 C.3     1  UNL1       -0.0424
     11 H           9.1653    9.0332    5.8735 H       1  UNL1        0.0275
     12 H           7.9918    7.7466    5.5685 H       1  UNL1        0.0275
     13 H           7.9556    9.2121    4.5922 H       1  UNL1        0.0275
     14 C           7.7846   11.9516    6.0463 C.3     1  UNL1       -0.0510
     15 H           8.5760   12.3859    6.6621 H       1  UNL1        0.0242
     16 H           8.2364   11.5558    5.1378 H       1  UNL1        0.0242
     17 H           7.0903   12.7509    5.7746 H       1  UNL1        0.0242
     18 C           5.9759   12.3975    8.5916 C.3     1  UNL1       -0.0424
     19 H           6.7817   12.6067    9.3000 H       1  UNL1        0.0275
     20 H           5.9431   13.2001    7.8572 H       1  UNL1        0.0275
     21 H           5.0315   12.4003    9.1331 H       1  UNL1        0.0275
     22 C           4.9584    9.5035    9.6013 C.3     1  UNL1       -0.0395
     23 H           5.5713    9.0337   10.3741 H       1  UNL1        0.0278
     24 H           4.5269   10.4130   10.0146 H       1  UNL1        0.0278
     25 H           4.1476    8.8170    9.3482 H       1  UNL1        0.0278
@<TRIPOS>BOND
     1    13    10    1
     2    16    14    1
     3    12    10    1
     4    10    11    1
     5    10     2    1
     6    17    14    1
     7    14    15    1
     8    14     3    1
     9     2     3    1
    10     2     1    2
    11     3     4    1
    12     9     6    1
    13     1     6    1
    14     1     5    1
    15     6     8    1
    16     6     7    1
    17    20    18    1
    18     4     5    2
    19     4    18    1
    20     5    22    1
    21    18    21    1
    22    18    19    1
    23    25    22    1
    24    22    24    1
    25    22    23    1
