@<TRIPOS>MOLECULE
1,2,3,4,5
 10 10 0 0 0
SMALL
GASTEIGER

@<TRIPOS>ATOM
      1 C           0.7517    5.3318    1.4812 C.2     1  UNL1       -0.0763
      2 C           0.3696    6.5697    0.9275 C.3     1  UNL1        0.0054
      3 C           1.3622    6.9629    0.0040 C.2     1  UNL1       -0.0763
      4 C           2.3605    5.9643   -0.0111 C.2     1  UNL1       -0.0654
      5 C           1.9811    4.9581    0.9035 C.2     1  UNL1       -0.0654
      6 H           0.1599    4.7300    2.1599 H       1  UNL1        0.0578
      7 H          -0.5944    7.0451    1.0545 H       1  UNL1        0.0394
      8 H           1.2873    7.7955   -0.6868 H       1  UNL1        0.0578
      9 H           3.1824    5.8997   -0.7156 H       1  UNL1        0.0615
     10 H           2.4581    3.9923    1.0092 H       1  UNL1        0.0615
@<TRIPOS>BOND
     1     9     4    1
     2     8     3    1
     3     4     3    2
     4     4     5    1
     5     3     2    1
     6     5    10    1
     7     5     1    2
     8     2     7    1
     9     2     1    1
    10     1     6    1
