@<TRIPOS>MOLECULE
1,2,3,4,5
 10 10 0 0 0
SMALL
GASTEIGER

@<TRIPOS>ATOM
      1 C          -0.8333    4.5708   18.2222 C.3     1  UNL1        0.0054
      2 C          -0.8507    4.2895   16.8409 C.2     1  UNL1       -0.0763
      3 C          -1.7471    3.2258   16.6218 C.2     1  UNL1       -0.0654
      4 C          -2.3123    2.8707   17.8591 C.2     1  UNL1       -0.0654
      5 C          -1.7415    3.6846   18.8569 C.2     1  UNL1       -0.0763
      6 H          -0.3618    5.4408   18.6653 H       1  UNL1        0.0394
      7 H          -0.3723    4.8777   16.0704 H       1  UNL1        0.0578
      8 H          -2.0666    2.8676   15.6525 H       1  UNL1        0.0615
      9 H          -3.1372    2.1846   18.0010 H       1  UNL1        0.0615
     10 H          -2.0862    3.7479   19.8830 H       1  UNL1        0.0578
@<TRIPOS>BOND
     1     8     3    1
     2     7     2    1
     3     3     2    2
     4     3     4    1
     5     2     1    1
     6     4     9    1
     7     4     5    2
     8     1     6    1
     9     1     5    1
    10     5    10    1
