@<TRIPOS>MOLECULE
1,2,3,4,5
 10 10 0 0 0
SMALL
GASTEIGER

@<TRIPOS>ATOM
      1 C           1.1076   -0.0490   18.8496 C.2     1  UNL1       -0.0654
      2 C           0.1892    0.3692   19.8327 C.2     1  UNL1       -0.0654
      3 C          -1.0849    0.4476   19.2358 C.2     1  UNL1       -0.0763
      4 C          -0.9504    0.0943   17.8738 C.3     1  UNL1        0.0054
      5 C           0.4098   -0.2104   17.6397 C.2     1  UNL1       -0.0763
      6 H           2.1474   -0.2975   19.0136 H       1  UNL1        0.0615
      7 H           0.3883    0.4393   20.8950 H       1  UNL1        0.0615
      8 H          -2.0182    0.5978   19.7671 H       1  UNL1        0.0578
      9 H          -1.7675   -0.0834   17.1824 H       1  UNL1        0.0394
     10 H           0.8226   -0.6318   16.7319 H       1  UNL1        0.0578
@<TRIPOS>BOND
     1    10     5    1
     2     9     4    1
     3     5     4    1
     4     5     1    2
     5     4     3    1
     6     1     6    1
     7     1     2    1
     8     3     8    1
     9     3     2    2
    10     2     7    1
