@<TRIPOS>MOLECULE
12,15,16,17,18
 45 48 0 0 0
SMALL
GASTEIGER

@<TRIPOS>ATOM
      1 SI          1.7693   -1.6129    7.9637 Si      1  UNL1        0.0000
      2 N           3.0462   -3.3919    8.6642 N.3     1  UNL1        0.0000
      3 O           1.3342   -2.6928    6.7963 O.3     1  UNL1        0.0000
      4 C           1.6580   -4.0494    6.8146 C.3     1  UNL1        0.0000
      5 C           3.0118   -4.2555    7.5072 C.3     1  UNL1        0.0000
      6 O           1.1198   -1.8267    9.4621 O.3     1  UNL1        0.0000
      7 C           1.6173   -2.6639   10.4614 C.3     1  UNL1        0.0000
      8 C           2.3271   -3.8693    9.8243 C.3     1  UNL1        0.0000
      9 O           3.2482   -0.9144    7.8268 O.3     1  UNL1        0.0000
     10 C           4.4635   -1.5808    7.9568 C.3     1  UNL1        0.0000
     11 C           4.3137   -2.7546    8.9346 C.3     1  UNL1        0.0000
     12 C           0.6793   -0.1485    7.4936 C.3     1  UNL1        0.0000
     13 C           1.2499    1.1299    6.9195 C.3     1  UNL1        0.0000
     14 H           2.2807    1.2606    7.2644 H       1  UNL1        0.0000
     15 C           0.3590    2.2143    7.4884 C.3     1  UNL1        0.0000
     16 C          -1.0167    2.0825    7.2835 C.3     1  UNL1        0.0000
     17 C          -1.5751    0.7869    7.2387 C.3     1  UNL1        0.0000
     18 C          -0.6872   -0.3200    7.3942 C.3     1  UNL1        0.0000
     19 C           1.2600    1.1480    5.4006 C.ar    1  UNL1        0.0000
     20 C           1.5270    2.3375    4.7313 C.ar    1  UNL1        0.0000
     21 C           1.5245    2.3865    3.3494 C.ar    1  UNL1        0.0000
     22 C           1.2594    1.2436    2.6144 C.ar    1  UNL1        0.0000
     23 C           1.0056    0.0533    3.2727 C.ar    1  UNL1        0.0000
     24 C           1.0041    0.0046    4.6565 C.ar    1  UNL1        0.0000
     25 H           0.8688   -4.5959    7.3460 H       1  UNL1        0.0000
     26 H           1.6954   -4.4076    5.7819 H       1  UNL1        0.0000
     27 H           3.8013   -3.9428    6.8227 H       1  UNL1        0.0000
     28 H           3.1598   -5.3131    7.7595 H       1  UNL1        0.0000
     29 H           2.3121   -2.0889   11.0856 H       1  UNL1        0.0000
     30 H           0.7793   -2.9889   11.0836 H       1  UNL1        0.0000
     31 H           1.5722   -4.5819    9.4895 H       1  UNL1        0.0000
     32 H           2.9810   -4.3638   10.5528 H       1  UNL1        0.0000
     33 H           4.7792   -1.9388    6.9682 H       1  UNL1        0.0000
     34 H           5.2090   -0.8696    8.3231 H       1  UNL1        0.0000
     35 H           4.2820   -2.3550    9.9489 H       1  UNL1        0.0000
     36 H           5.1643   -3.4425    8.8473 H       1  UNL1        0.0000
     37 H           0.7771    3.2150    7.5661 H       1  UNL1        0.0000
     38 H          -1.6648    2.9571    7.2363 H       1  UNL1        0.0000
     39 H          -2.6146    0.6325    6.9668 H       1  UNL1        0.0000
     40 H          -1.1065   -1.3197    7.4824 H       1  UNL1        0.0000
     41 H           1.7397    3.2344    5.2955 H       1  UNL1        0.0000
     42 H           1.7297    3.3196    2.8443 H       1  UNL1        0.0000
     43 H           1.2550    1.2810    1.5347 H       1  UNL1        0.0000
     44 H           0.8058   -0.8452    2.7063 H       1  UNL1        0.0000
     45 H           0.8144   -0.9293    5.1634 H       1  UNL1        0.0000
@<TRIPOS>BOND
     1    43    22    1
     2    22    23   ar
     3    22    21   ar
     4    44    23    1
     5    42    21    1
     6    23    24   ar
     7    21    20   ar
     8    24    45    1
     9    24    19   ar
    10    20    41    1
    11    20    19   ar
    12    19    13    1
    13    26     4    1
    14     3     4    1
    15     3     1    1
    16     4    25    1
    17     4     5    1
    18    27     5    1
    19    13    14    1
    20    13    15    1
    21    13    12    1
    22    39    17    1
    23    33    10    1
    24    38    16    1
    25    17    16    1
    26    17    18    1
    27    16    15    1
    28    18    40    1
    29    18    12    1
    30    15    37    1
    31    12     1    1
    32     5    28    1
    33     5     2    1
    34     9    10    1
    35     9     1    1
    36    10    34    1
    37    10    11    1
    38     1     6    1
    39     2    11    1
    40     2     8    1
    41    36    11    1
    42    11    35    1
    43     6     7    1
    44    31     8    1
    45     8     7    1
    46     8    32    1
    47     7    30    1
    48     7    29    1
