@<TRIPOS>MOLECULE
1,3,5,7,9
 10 10 0 0 0
SMALL
GASTEIGER

@<TRIPOS>ATOM
      1 C          -6.8044   20.6685    5.6700 C.3     1  UNL1       -0.0127
      2 H          -6.7214   21.5420    6.3033 H       1  UNL1        0.0352
      3 C          -7.2992   20.6403    4.3464 C.3     1  UNL1       -0.0235
      4 H          -7.6610   21.4927    3.7841 H       1  UNL1        0.0315
      5 C          -7.4507   19.2698    3.9678 C.3     1  UNL1       -0.0127
      6 H          -7.9550   18.9195    3.0761 H       1  UNL1        0.0352
      7 C          -7.0779   18.4672    5.0667 C.2     1  UNL1       -0.0837
      8 H          -7.1990   17.3952    5.1429 H       1  UNL1        0.0572
      9 C          -6.6478   19.3204    6.1026 C.2     1  UNL1       -0.0837
     10 H          -6.4170   19.0150    7.1155 H       1  UNL1        0.0572
@<TRIPOS>BOND
     1     6     5    1
     2     4     3    1
     3     5     3    1
     4     5     7    1
     5     3     1    1
     6     7     8    1
     7     7     9    2
     8     1     9    1
     9     1     2    1
    10     9    10    1
