@<TRIPOS>MOLECULE
1,2,3,4,5
 10 10 0 0 0
SMALL
GASTEIGER

@<TRIPOS>ATOM
      1 C           7.5092    3.7480   -4.8692 C.2     1  UNL1       -0.0763
      2 C           7.1735    5.0584   -4.4820 C.2     1  UNL1       -0.0654
      3 C           8.0762    5.4552   -3.4684 C.2     1  UNL1       -0.0654
      4 C           8.9446    4.3677   -3.2096 C.2     1  UNL1       -0.0763
      5 C           8.5755    3.3060   -4.0664 C.3     1  UNL1        0.0054
      6 H           7.0383    3.1851   -5.6656 H       1  UNL1        0.0578
      7 H           6.4564    5.6992   -4.9830 H       1  UNL1        0.0615
      8 H           8.1772    6.4598   -3.0727 H       1  UNL1        0.0615
      9 H           9.8281    4.3922   -2.5811 H       1  UNL1        0.0578
     10 H           9.1137    2.3733   -4.1882 H       1  UNL1        0.0394
@<TRIPOS>BOND
     1     6     1    1
     2     7     2    1
     3     1     2    2
     4     1     5    1
     5     2     3    1
     6    10     5    1
     7     5     4    1
     8     3     4    2
     9     3     8    1
    10     4     9    1
