@<TRIPOS>MOLECULE
1,3,5,7,9
 25 25 0 0 0
SMALL
GASTEIGER

@<TRIPOS>ATOM
      1 C           5.2162    2.4837    5.9541 C.2     1  UNL1       -0.0584
      2 C           6.1320    1.5557    6.6909 C.3     1  UNL1       -0.0424
      3 C           5.6442    3.4833    5.0281 C.2     1  UNL1       -0.0477
      4 C           7.0804    3.6954    4.6454 C.3     1  UNL1       -0.0395
      5 C           4.5576    4.3739    4.8229 C.2     1  UNL1       -0.0477
      6 C           4.6198    5.6908    4.1011 C.3     1  UNL1       -0.0395
      7 C           3.4803    3.9588    5.6570 C.2     1  UNL1       -0.0584
      8 C           2.3597    4.8512    6.1039 C.3     1  UNL1       -0.0424
      9 C           3.8745    2.7686    6.3219 C.3     1  UNL1        0.0231
     10 C           3.1503    2.0859    7.4464 C.3     1  UNL1       -0.0510
     11 H           5.6133    0.6601    7.0237 H       1  UNL1        0.0275
     12 H           6.5269    2.0668    7.5748 H       1  UNL1        0.0275
     13 H           6.9722    1.2636    6.0671 H       1  UNL1        0.0275
     14 H           7.1859    4.3928    3.8173 H       1  UNL1        0.0278
     15 H           7.5578    2.7574    4.3613 H       1  UNL1        0.0278
     16 H           7.6232    4.1031    5.5030 H       1  UNL1        0.0278
     17 H           3.7728    5.8315    3.4275 H       1  UNL1        0.0278
     18 H           5.5365    5.7769    3.5201 H       1  UNL1        0.0278
     19 H           4.6065    6.5099    4.8252 H       1  UNL1        0.0278
     20 H           2.1553    5.6359    5.3814 H       1  UNL1        0.0275
     21 H           2.6597    5.3331    7.0399 H       1  UNL1        0.0275
     22 H           1.4395    4.3065    6.3037 H       1  UNL1        0.0275
     23 H           2.1235    2.4343    7.5289 H       1  UNL1        0.0242
     24 H           3.6553    2.3015    8.3920 H       1  UNL1        0.0242
     25 H           3.1444    1.0013    7.3165 H       1  UNL1        0.0242
@<TRIPOS>BOND
     1    17     6    1
     2    18     6    1
     3    14     4    1
     4     6     5    1
     5     6    19    1
     6    15     4    1
     7     4     3    1
     8     4    16    1
     9     5     3    1
    10     5     7    2
    11     3     1    2
    12    20     8    1
    13     7     8    1
    14     7     9    1
    15     1     9    1
    16     1     2    1
    17    13     2    1
    18     8    22    1
    19     8    21    1
    20     9    10    1
    21     2    11    1
    22     2    12    1
    23    25    10    1
    24    10    23    1
    25    10    24    1
