@<TRIPOS>MOLECULE
1,2,3,4,5
 10 10 0 0 0
SMALL
GASTEIGER

@<TRIPOS>ATOM
      1 C           7.6145    4.8686   -0.5472 C.2     1  UNL1       -0.0763
      2 C           7.6192    3.4756   -0.3391 C.3     1  UNL1        0.0054
      3 C           6.2881    3.0189   -0.4271 C.2     1  UNL1       -0.0763
      4 C           5.4620    4.1333   -0.7162 C.2     1  UNL1       -0.0654
      5 C           6.2895    5.2722   -0.8037 C.2     1  UNL1       -0.0654
      6 H           8.4663    5.5279   -0.4403 H       1  UNL1        0.0578
      7 H           8.4744    2.8835   -0.0320 H       1  UNL1        0.0394
      8 H           5.9371    2.0210   -0.1928 H       1  UNL1        0.0578
      9 H           4.3777    4.1275   -0.7288 H       1  UNL1        0.0615
     10 H           5.9504    6.2968   -0.9149 H       1  UNL1        0.0615
@<TRIPOS>BOND
     1    10     5    1
     2     5     4    1
     3     5     1    2
     4     9     4    1
     5     4     3    2
     6     1     6    1
     7     1     2    1
     8     3     2    1
     9     3     8    1
    10     2     7    1
