@<TRIPOS>MOLECULE
1,3,5,7,9
 25 25 0 0 0
SMALL
GASTEIGER

@<TRIPOS>ATOM
      1 C           1.9208    3.0162    3.1972 C.2     1  UNL1       -0.0584
      2 C           1.0920    4.2676    3.2154 C.3     1  UNL1       -0.0424
      3 C           1.7053    1.8447    3.9752 C.3     1  UNL1        0.0231
      4 C           0.6720    1.6500    5.0468 C.3     1  UNL1       -0.0510
      5 C           2.3680    0.7629    3.3248 C.2     1  UNL1       -0.0584
      6 C           2.1508   -0.6838    3.6549 C.3     1  UNL1       -0.0424
      7 C           2.9583    1.2625    2.1308 C.2     1  UNL1       -0.0477
      8 C           3.5574    0.4230    1.0440 C.3     1  UNL1       -0.0395
      9 C           2.7325    2.6572    2.0816 C.2     1  UNL1       -0.0477
     10 C           2.9772    3.5531    0.9017 C.3     1  UNL1       -0.0395
     11 H           0.4924    4.3441    4.1175 H       1  UNL1        0.0275
     12 H           0.4061    4.2396    2.3632 H       1  UNL1        0.0275
     13 H           1.6913    5.1720    3.1140 H       1  UNL1        0.0275
     14 H           0.3994    2.5862    5.5287 H       1  UNL1        0.0242
     15 H           1.0125    0.9514    5.8109 H       1  UNL1        0.0242
     16 H          -0.2352    1.2326    4.5991 H       1  UNL1        0.0242
     17 H           2.9554   -1.2995    3.2628 H       1  UNL1        0.0275
     18 H           1.2118   -1.0257    3.2084 H       1  UNL1        0.0275
     19 H           2.0859   -0.8418    4.7305 H       1  UNL1        0.0275
     20 H           4.1989    1.0137    0.3924 H       1  UNL1        0.0278
     21 H           2.7572   -0.0064    0.4351 H       1  UNL1        0.0278
     22 H           4.1481   -0.3925    1.4559 H       1  UNL1        0.0278
     23 H           3.8037    3.1935    0.2913 H       1  UNL1        0.0278
     24 H           3.1919    4.5759    1.2117 H       1  UNL1        0.0278
     25 H           2.0818    3.5803    0.2730 H       1  UNL1        0.0278
@<TRIPOS>BOND
     1    25    10    1
     2    23    10    1
     3    20     8    1
     4    21     8    1
     5    10    24    1
     6    10     9    1
     7     8    22    1
     8     8     7    1
     9     9     7    1
    10     9     1    2
    11     7     5    2
    12    12     2    1
    13    13     2    1
    14     1     2    1
    15     1     3    1
    16    18     6    1
    17     2    11    1
    18    17     6    1
    19     5     6    1
    20     5     3    1
    21     6    19    1
    22     3     4    1
    23    16     4    1
    24     4    14    1
    25     4    15    1
