@<TRIPOS>MOLECULE
1,2,3,4,5
 10 10 0 0 0
SMALL
GASTEIGER

@<TRIPOS>ATOM
      1 C           2.6476    3.3394   -0.4743 C.2     1  UNL1       -0.0837
      2 C           1.7598    2.3430   -0.0176 C.2     1  UNL1       -0.0837
      3 C           2.5002    1.1483    0.1795 C.3     1  UNL1       -0.0127
      4 C           3.8376    1.3949   -0.2175 C.3     1  UNL1       -0.0235
      5 C           3.9364    2.7490   -0.6071 C.3     1  UNL1       -0.0127
      6 H           2.3724    4.3236   -0.8153 H       1  UNL1        0.0572
      7 H           0.6902    2.4389    0.0761 H       1  UNL1        0.0572
      8 H           2.0795    0.1842    0.4109 H       1  UNL1        0.0352
      9 H           4.6208    0.6589   -0.2907 H       1  UNL1        0.0315
     10 H           4.8007    3.2182   -1.0477 H       1  UNL1        0.0352
@<TRIPOS>BOND
     1    10     5    1
     2     6     1    1
     3     5     1    1
     4     5     4    1
     5     1     2    2
     6     9     4    1
     7     4     3    1
     8     2     7    1
     9     2     3    1
    10     3     8    1
