@<TRIPOS>MOLECULE
1,2,3,4,5
 25 25 0 0 0
SMALL
GASTEIGER

@<TRIPOS>ATOM
      1 C           2.9032   15.0131   15.4910 C.2     1  UNL1       -0.0477
      2 C           2.7123   14.0086   14.4800 C.2     1  UNL1       -0.0477
      3 C           3.5519   12.9149   14.7801 C.2     1  UNL1       -0.0584
      4 C           4.2975   13.2403   15.9588 C.3     1  UNL1        0.0231
      5 C           3.8400   14.5199   16.4277 C.2     1  UNL1       -0.0584
      6 C           1.9960   16.1954   15.6687 C.3     1  UNL1       -0.0395
      7 C           1.5627   13.9916   13.5176 C.3     1  UNL1       -0.0395
      8 C           3.5490   11.5752   14.1110 C.3     1  UNL1       -0.0424
      9 C           5.1042   12.2612   16.7604 C.3     1  UNL1       -0.0510
     10 C           4.1690   15.1073   17.7651 C.3     1  UNL1       -0.0424
     11 H           1.0099   15.8585   15.9990 H       1  UNL1        0.0278
     12 H           1.8711   16.7439   14.7341 H       1  UNL1        0.0278
     13 H           2.3866   16.8857   16.4133 H       1  UNL1        0.0278
     14 H           0.6982   13.5297   14.0029 H       1  UNL1        0.0278
     15 H           1.7895   13.4134   12.6240 H       1  UNL1        0.0278
     16 H           1.2787   15.0003   13.2221 H       1  UNL1        0.0278
     17 H           2.9268   10.8807   14.6806 H       1  UNL1        0.0275
     18 H           4.5547   11.1618   14.0541 H       1  UNL1        0.0275
     19 H           3.1486   11.6370   13.1013 H       1  UNL1        0.0275
     20 H           5.6254   11.5611   16.1088 H       1  UNL1        0.0242
     21 H           4.4481   11.6909   17.4227 H       1  UNL1        0.0242
     22 H           5.8461   12.7728   17.3718 H       1  UNL1        0.0242
     23 H           3.5340   14.6554   18.5313 H       1  UNL1        0.0275
     24 H           4.0056   16.1831   17.7784 H       1  UNL1        0.0275
     25 H           5.2070   14.9164   18.0322 H       1  UNL1        0.0275
@<TRIPOS>BOND
     1    15     7    1
     2    19     8    1
     3    16     7    1
     4     7    14    1
     5     7     2    1
     6    18     8    1
     7     8    17    1
     8     8     3    1
     9     2     3    2
    10     2     1    1
    11    12     6    1
    12     3     4    1
    13     1     6    1
    14     1     5    2
    15     6    11    1
    16     6    13    1
    17     4     5    1
    18     4     9    1
    19    20     9    1
    20     5    10    1
    21     9    22    1
    22     9    21    1
    23    10    24    1
    24    10    25    1
    25    10    23    1
