@<TRIPOS>MOLECULE
1,2,3,4,5
 25 25 0 0 0
SMALL
GASTEIGER

@<TRIPOS>ATOM
      1 C           6.2580    6.8037    2.9108 C.2     1  UNL1       -0.0477
      2 C           5.3281    7.4536    3.7590 C.2     1  UNL1       -0.0584
      3 C           5.0666    8.7551    3.2079 C.3     1  UNL1        0.0231
      4 C           5.9115    8.9208    2.0604 C.2     1  UNL1       -0.0584
      5 C           6.6272    7.7197    1.8725 C.2     1  UNL1       -0.0477
      6 C           7.0399    5.5611    3.2198 C.3     1  UNL1       -0.0395
      7 C           4.8537    6.9740    5.0959 C.3     1  UNL1       -0.0424
      8 C           4.3553    9.8687    3.9200 C.3     1  UNL1       -0.0510
      9 C           6.1120   10.2174    1.3373 C.3     1  UNL1       -0.0424
     10 C           7.8000    7.4885    0.9670 C.3     1  UNL1       -0.0395
     11 H           8.0145    5.8376    3.6321 H       1  UNL1        0.0278
     12 H           7.2110    4.9648    2.3239 H       1  UNL1        0.0278
     13 H           6.5300    4.9370    3.9497 H       1  UNL1        0.0278
     14 H           5.4772    7.4015    5.8850 H       1  UNL1        0.0275
     15 H           4.9108    5.8895    5.1668 H       1  UNL1        0.0275
     16 H           3.8234    7.2758    5.2782 H       1  UNL1        0.0275
     17 H           5.0487   10.3923    4.5829 H       1  UNL1        0.0242
     18 H           3.5326    9.4838    4.5206 H       1  UNL1        0.0242
     19 H           3.9497   10.5896    3.2115 H       1  UNL1        0.0242
     20 H           6.7923   10.8551    1.9073 H       1  UNL1        0.0275
     21 H           5.1690   10.7487    1.2204 H       1  UNL1        0.0275
     22 H           6.5370   10.0630    0.3484 H       1  UNL1        0.0275
     23 H           8.7072    7.4024    1.5707 H       1  UNL1        0.0278
     24 H           7.9390    8.3159    0.2747 H       1  UNL1        0.0278
     25 H           7.6923    6.5644    0.3974 H       1  UNL1        0.0278
@<TRIPOS>BOND
     1    24    10    1
     2    22     9    1
     3    25    10    1
     4    10    23    1
     5    10     5    1
     6    21     9    1
     7     9    20    1
     8     9     4    1
     9     5     4    2
    10     5     1    1
    11     4     3    1
    12    12     6    1
    13     1     6    1
    14     1     2    2
    15     3     2    1
    16     3     8    1
    17    19     8    1
    18     6    11    1
    19     6    13    1
    20     2     7    1
    21     8    18    1
    22     8    17    1
    23     7    15    1
    24     7    16    1
    25     7    14    1
