@<TRIPOS>MOLECULE
1,2,3,4,5
 25 25 0 0 0
SMALL
GASTEIGER

@<TRIPOS>ATOM
      1 C           8.8510    3.6510    2.3715 C.2     1  UNL1       -0.0477
      2 C           9.9977    4.1741    1.7283 C.2     1  UNL1       -0.0584
      3 C          10.8759    4.6844    2.7395 C.3     1  UNL1        0.0231
      4 C          10.2826    4.4106    4.0131 C.2     1  UNL1       -0.0584
      5 C           9.0373    3.7738    3.7857 C.2     1  UNL1       -0.0477
      6 C           7.7743    2.8164    1.7419 C.3     1  UNL1       -0.0395
      7 C          10.3652    4.0462    0.2806 C.3     1  UNL1       -0.0424
      8 C          12.2994    5.1048    2.5129 C.3     1  UNL1       -0.0510
      9 C          10.9702    4.5560    5.3383 C.3     1  UNL1       -0.0424
     10 C           8.2488    3.0234    4.8148 C.3     1  UNL1       -0.0395
     11 H           6.8275    2.9455    2.2638 H       1  UNL1        0.0278
     12 H           8.0484    1.7595    1.7967 H       1  UNL1        0.0278
     13 H           7.6286    3.0687    0.6919 H       1  UNL1        0.0278
     14 H           9.5067    3.7676   -0.3270 H       1  UNL1        0.0275
     15 H          11.1255    3.2706    0.1626 H       1  UNL1        0.0275
     16 H          10.7737    4.9780   -0.1092 H       1  UNL1        0.0275
     17 H          12.4061    5.6218    1.5608 H       1  UNL1        0.0242
     18 H          12.9518    4.2279    2.5024 H       1  UNL1        0.0242
     19 H          12.6374    5.7741    3.3023 H       1  UNL1        0.0242
     20 H          11.6089    5.4378    5.3513 H       1  UNL1        0.0275
     21 H          11.5929    3.6788    5.5306 H       1  UNL1        0.0275
     22 H          10.2467    4.6461    6.1462 H       1  UNL1        0.0275
     23 H           8.3591    3.4634    5.8029 H       1  UNL1        0.0278
     24 H           8.6119    1.9926    4.8586 H       1  UNL1        0.0278
     25 H           7.1924    2.9987    4.5667 H       1  UNL1        0.0278
@<TRIPOS>BOND
     1    14     7    1
     2    16     7    1
     3    15     7    1
     4     7     2    1
     5    13     6    1
     6    17     8    1
     7     2     1    2
     8     2     3    1
     9     6    12    1
    10     6    11    1
    11     6     1    1
    12     1     5    1
    13    18     8    1
    14     8     3    1
    15     8    19    1
    16     3     4    1
    17     5     4    2
    18     5    10    1
    19     4     9    1
    20    25    10    1
    21    10    24    1
    22    10    23    1
    23     9    20    1
    24     9    21    1
    25     9    22    1
