@<TRIPOS>MOLECULE
2,3,4,5,6
 22 22 0 0 0
SMALL
GASTEIGER

@<TRIPOS>ATOM
      1 SI         -0.2320   12.2297   -1.0473 Si      1  UNL1        0.0000
      2 C          -0.0936   10.3463   -1.2455 C.2     1  UNL1        0.0000
      3 C           1.1221    9.6132   -1.2391 C.3     1  UNL1        0.0000
      4 C           0.8774    8.3166   -1.7394 C.2     1  UNL1        0.0000
      5 C          -0.4828    8.2318   -2.0794 C.2     1  UNL1        0.0000
      6 C          -1.0893    9.4564   -1.7533 C.2     1  UNL1        0.0000
      7 C           0.1888   12.7916    0.7245 C.3     1  UNL1        0.0000
      8 C          -1.9795   12.7771   -1.5785 C.3     1  UNL1        0.0000
      9 C           1.0649   12.9395   -2.2622 C.3     1  UNL1        0.0000
     10 H           2.0929   10.0459   -1.0328 H       1  UNL1        0.0000
     11 H           1.6215    7.5591   -1.9366 H       1  UNL1        0.0000
     12 H          -0.9548    7.4040   -2.5929 H       1  UNL1        0.0000
     13 H          -2.1038    9.7440   -2.0032 H       1  UNL1        0.0000
     14 H          -0.5885   12.4961    1.4241 H       1  UNL1        0.0000
     15 H           0.2883   13.8716    0.7750 H       1  UNL1        0.0000
     16 H           1.1236   12.3552    1.0718 H       1  UNL1        0.0000
     17 H          -2.7435   12.3747   -0.9204 H       1  UNL1        0.0000
     18 H          -2.2078   12.4669   -2.5943 H       1  UNL1        0.0000
     19 H          -2.0547   13.8589   -1.5454 H       1  UNL1        0.0000
     20 H           0.9801   14.0195   -2.3020 H       1  UNL1        0.0000
     21 H           0.9254   12.5621   -3.2703 H       1  UNL1        0.0000
     22 H           2.0798   12.7033   -1.9583 H       1  UNL1        0.0000
@<TRIPOS>BOND
     1    21     9    1
     2    18     8    1
     3    12     5    1
     4    20     9    1
     5     9    22    1
     6     9     1    1
     7     5     6    1
     8     5     4    2
     9    13     6    1
    10    11     4    1
    11     6     2    2
    12     4     3    1
    13     8    19    1
    14     8     1    1
    15     8    17    1
    16     2     3    1
    17     2     1    1
    18     3    10    1
    19     1     7    1
    20     7    15    1
    21     7    16    1
    22     7    14    1
