@<TRIPOS>MOLECULE
2,3,4,5,6
 22 22 0 0 0
SMALL
GASTEIGER

@<TRIPOS>ATOM
      1 SI         -1.0160    7.5885    4.0910 Si      1  UNL1        0.0000
      2 C          -0.9148    7.1501    2.2485 C.2     1  UNL1        0.0000
      3 C           0.2235    6.6501    1.5518 C.3     1  UNL1        0.0000
      4 C          -0.1751    6.2447    0.2638 C.2     1  UNL1        0.0000
      5 C          -1.5618    6.4746    0.1413 C.2     1  UNL1        0.0000
      6 C          -2.0137    7.0118    1.3583 C.2     1  UNL1        0.0000
      7 C           0.7289    7.3657    4.8320 C.3     1  UNL1        0.0000
      8 C          -1.6409    9.3635    4.3926 C.3     1  UNL1        0.0000
      9 C          -2.2277    6.3279    4.8613 C.3     1  UNL1        0.0000
     10 H           1.1900    6.4507    1.9911 H       1  UNL1        0.0000
     11 H           0.4473    5.7186   -0.4467 H       1  UNL1        0.0000
     12 H          -2.1942    6.1567   -0.6788 H       1  UNL1        0.0000
     13 H          -3.0480    7.2073    1.6125 H       1  UNL1        0.0000
     14 H           1.1208    6.3677    4.6575 H       1  UNL1        0.0000
     15 H           0.7026    7.5222    5.9054 H       1  UNL1        0.0000
     16 H           1.4301    8.0824    4.4146 H       1  UNL1        0.0000
     17 H          -2.6844    9.4795    4.1125 H       1  UNL1        0.0000
     18 H          -1.0716   10.0854    3.8110 H       1  UNL1        0.0000
     19 H          -1.5471    9.6332    5.4406 H       1  UNL1        0.0000
     20 H          -2.2834    6.4737    5.9343 H       1  UNL1        0.0000
     21 H          -1.9126    5.3043    4.6841 H       1  UNL1        0.0000
     22 H          -3.2316    6.4382    4.4638 H       1  UNL1        0.0000
@<TRIPOS>BOND
     1    12     5    1
     2    11     4    1
     3     5     4    2
     4     5     6    1
     5     4     3    1
     6     6    13    1
     7     6     2    2
     8     3    10    1
     9     3     2    1
    10     2     1    1
    11    18     8    1
    12     1     8    1
    13     1     7    1
    14     1     9    1
    15    17     8    1
    16     8    19    1
    17    16     7    1
    18    22     9    1
    19    14     7    1
    20    21     9    1
    21     7    15    1
    22     9    20    1
