@<TRIPOS>MOLECULE
1,2,3,4,5
 25 25 0 0 0
SMALL
GASTEIGER

@<TRIPOS>ATOM
      1 C           1.1891    0.5515    5.8791 C.3     1  UNL1        0.0052
      2 C           1.3149   -0.7318    6.4856 C.2     1  UNL1       -0.0658
      3 C           0.2884   -1.5678    5.9653 C.2     1  UNL1       -0.0658
      4 C          -0.4701   -0.8058    5.0289 C.3     1  UNL1        0.0052
      5 C           0.0807    0.5065    4.9854 C.3     1  UNL1       -0.0053
      6 C           2.1545    1.6898    6.0391 C.3     1  UNL1       -0.0545
      7 C           2.3927   -1.1900    7.4221 C.3     1  UNL1       -0.0430
      8 C           0.1314   -3.0227    6.2947 C.3     1  UNL1       -0.0430
      9 C          -1.5473   -1.3432    4.1325 C.3     1  UNL1       -0.0545
     10 C          -0.3826    1.6306    4.1036 C.3     1  UNL1       -0.0574
     11 H           3.0258    1.5309    5.3986 H       1  UNL1        0.0239
     12 H           1.6932    2.6357    5.7609 H       1  UNL1        0.0239
     13 H           2.4972    1.7720    7.0709 H       1  UNL1        0.0239
     14 H           3.0974   -1.8369    6.8945 H       1  UNL1        0.0275
     15 H           2.9432   -0.3443    7.8297 H       1  UNL1        0.0275
     16 H           1.9583   -1.7577    8.2456 H       1  UNL1        0.0275
     17 H           0.9162   -3.6061    5.8077 H       1  UNL1        0.0275
     18 H           0.2120   -3.1725    7.3721 H       1  UNL1        0.0275
     19 H          -0.8334   -3.3999    5.9604 H       1  UNL1        0.0275
     20 H          -1.1016   -1.7569    3.2242 H       1  UNL1        0.0239
     21 H          -2.1122   -2.1323    4.6280 H       1  UNL1        0.0239
     22 H          -2.2467   -0.5602    3.8440 H       1  UNL1        0.0239
     23 H           0.1802    1.6415    3.1671 H       1  UNL1        0.0236
     24 H          -1.4409    1.5235    3.8644 H       1  UNL1        0.0236
     25 H          -0.2417    2.5932    4.5977 H       1  UNL1        0.0236
@<TRIPOS>BOND
     1    23    10    1
     2    20     9    1
     3    22     9    1
     4    24    10    1
     5    10    25    1
     6    10     5    1
     7     9    21    1
     8     9     4    1
     9     5     4    1
    10     5     1    1
    11     4     3    1
    12    11     6    1
    13    12     6    1
    14    17     8    1
    15     1     6    1
    16     1     2    1
    17    19     8    1
    18     3     8    1
    19     3     2    2
    20     6    13    1
    21     8    18    1
    22     2     7    1
    23    14     7    1
    24     7    15    1
    25     7    16    1
