@<TRIPOS>MOLECULE
1,2,3,4,5
 25 25 0 0 0
SMALL
GASTEIGER

@<TRIPOS>ATOM
      1 C          12.8502    7.3555    1.6560 C.2     1  UNL1       -0.0477
      2 C          12.3310    7.6689    2.9426 C.2     1  UNL1       -0.0584
      3 C          11.1334    8.4478    2.7550 C.3     1  UNL1        0.0231
      4 C          10.9275    8.6061    1.3452 C.2     1  UNL1       -0.0584
      5 C          11.9774    7.9034    0.6743 C.2     1  UNL1       -0.0477
      6 C          14.1819    6.7432    1.3278 C.3     1  UNL1       -0.0395
      7 C          13.0723    7.6060    4.2520 C.3     1  UNL1       -0.0424
      8 C          10.4635    9.2668    3.8285 C.3     1  UNL1       -0.0510
      9 C           9.9548    9.5795    0.7340 C.3     1  UNL1       -0.0424
     10 C          12.3028    7.9626   -0.7924 C.3     1  UNL1       -0.0395
     11 H          14.0905    5.9802    0.5541 H       1  UNL1        0.0278
     12 H          14.8562    7.5162    0.9518 H       1  UNL1        0.0278
     13 H          14.6417    6.2829    2.1984 H       1  UNL1        0.0278
     14 H          13.9318    6.9432    4.1917 H       1  UNL1        0.0275
     15 H          13.4388    8.6034    4.5052 H       1  UNL1        0.0275
     16 H          12.4307    7.2699    5.0657 H       1  UNL1        0.0275
     17 H          10.4340    8.7282    4.7745 H       1  UNL1        0.0242
     18 H          11.0184   10.1952    3.9850 H       1  UNL1        0.0242
     19 H           9.4464    9.5241    3.5402 H       1  UNL1        0.0242
     20 H           8.9657    9.4798    1.1813 H       1  UNL1        0.0275
     21 H          10.3029   10.6007    0.9048 H       1  UNL1        0.0275
     22 H           9.8645    9.4273   -0.3389 H       1  UNL1        0.0275
     23 H          11.4356    8.2449   -1.3865 H       1  UNL1        0.0278
     24 H          13.0898    8.7016   -0.9618 H       1  UNL1        0.0278
     25 H          12.6671    7.0021   -1.1582 H       1  UNL1        0.0278
@<TRIPOS>BOND
     1    23    10    1
     2    25    10    1
     3    24    10    1
     4    10     5    1
     5    22     9    1
     6    11     6    1
     7     5     4    2
     8     5     1    1
     9     9    21    1
    10     9    20    1
    11     9     4    1
    12    12     6    1
    13     6     1    1
    14     6    13    1
    15     4     3    1
    16     1     2    2
    17     3     2    1
    18     3     8    1
    19     2     7    1
    20    19     8    1
    21     8    18    1
    22     8    17    1
    23    14     7    1
    24     7    15    1
    25     7    16    1
