@<TRIPOS>MOLECULE
1,2,3,4,5
 25 25 0 0 0
SMALL
GASTEIGER

@<TRIPOS>ATOM
      1 C           8.6873    1.2912    6.6963 C.3     1  UNL1        0.0231
      2 C           9.9553    1.8918    6.9788 C.2     1  UNL1       -0.0584
      3 C          10.8707    1.4829    5.9700 C.2     1  UNL1       -0.0477
      4 C          10.1739    0.6145    5.0634 C.2     1  UNL1       -0.0477
      5 C           8.8348    0.4780    5.5252 C.2     1  UNL1       -0.0584
      6 C           7.5001    1.2983    7.6215 C.3     1  UNL1       -0.0510
      7 C          10.2801    2.6646    8.2280 C.3     1  UNL1       -0.0424
      8 C          12.3627    1.6722    6.0240 C.3     1  UNL1       -0.0395
      9 C          10.7987   -0.2125    3.9720 C.3     1  UNL1       -0.0395
     10 C           7.8196   -0.4958    4.9930 C.3     1  UNL1       -0.0424
     11 H           7.4393    2.2383    8.1687 H       1  UNL1        0.0242
     12 H           6.5703    1.1581    7.0709 H       1  UNL1        0.0242
     13 H           7.5873    0.4872    8.3490 H       1  UNL1        0.0242
     14 H          10.3466    1.9873    9.0827 H       1  UNL1        0.0275
     15 H          11.2317    3.1835    8.1323 H       1  UNL1        0.0275
     16 H           9.5109    3.4074    8.4437 H       1  UNL1        0.0275
     17 H          12.8044    0.9137    6.6750 H       1  UNL1        0.0278
     18 H          12.8156    1.5716    5.0394 H       1  UNL1        0.0278
     19 H          12.6282    2.6511    6.4211 H       1  UNL1        0.0278
     20 H          11.0943   -1.1898    4.3620 H       1  UNL1        0.0278
     21 H          10.0960   -0.3740    3.1549 H       1  UNL1        0.0278
     22 H          11.6871    0.2687    3.5654 H       1  UNL1        0.0278
     23 H           6.8050   -0.1771    5.2268 H       1  UNL1        0.0275
     24 H           7.8963   -0.5938    3.9107 H       1  UNL1        0.0275
     25 H           7.9798   -1.4816    5.4365 H       1  UNL1        0.0275
@<TRIPOS>BOND
     1    21     9    1
     2    22     9    1
     3    24    10    1
     4     9    20    1
     5     9     4    1
     6    10    23    1
     7    10    25    1
     8    10     5    1
     9    18     8    1
    10     4     5    2
    11     4     3    1
    12     5     1    1
    13     3     8    1
    14     3     2    2
    15     8    19    1
    16     8    17    1
    17     1     2    1
    18     1     6    1
    19     2     7    1
    20    12     6    1
    21     6    11    1
    22     6    13    1
    23    15     7    1
    24     7    16    1
    25     7    14    1
