@<TRIPOS>MOLECULE
1,2,3,4,5
 10 10 0 0 0
SMALL
GASTEIGER

@<TRIPOS>ATOM
      1 C           2.2800    3.0995    1.4900 C.2     1  UNL1       -0.0654
      2 C           2.2313    2.0739    2.4808 C.2     1  UNL1       -0.0654
      3 C           3.3962    2.1660    3.2550 C.2     1  UNL1       -0.0763
      4 C           4.1550    3.2709    2.7712 C.3     1  UNL1        0.0054
      5 C           3.4796    3.8085    1.6484 C.2     1  UNL1       -0.0763
      6 H           1.5880    3.2188    0.6723 H       1  UNL1        0.0615
      7 H           1.5021    1.2794    2.5246 H       1  UNL1        0.0615
      8 H           3.7100    1.4702    4.0166 H       1  UNL1        0.0578
      9 H           5.1516    3.5339    3.0879 H       1  UNL1        0.0394
     10 H           3.8523    4.5766    0.9907 H       1  UNL1        0.0578
@<TRIPOS>BOND
     1     6     1    1
     2    10     5    1
     3     1     5    2
     4     1     2    1
     5     5     4    1
     6     2     7    1
     7     2     3    2
     8     4     9    1
     9     4     3    1
    10     3     8    1
