@<TRIPOS>MOLECULE
1,2,3,4,5
 10 10 0 0 0
SMALL
GASTEIGER

@<TRIPOS>ATOM
      1 C           0.6454    3.8823    3.6958 C.3     1  UNL1       -0.0127
      2 C           1.5004    3.2642    2.7588 C.3     1  UNL1       -0.0235
      3 C           2.7903    3.1996    3.3220 C.3     1  UNL1       -0.0127
      4 C           2.7351    3.7849    4.6036 C.2     1  UNL1       -0.0837
      5 C           1.4067    4.1881    4.8405 C.2     1  UNL1       -0.0837
      6 H          -0.4314    3.9467    3.6124 H       1  UNL1        0.0352
      7 H           1.1874    2.7832    1.8440 H       1  UNL1        0.0315
      8 H           3.6432    2.6934    2.8925 H       1  UNL1        0.0352
      9 H           3.5417    3.8011    5.3267 H       1  UNL1        0.0572
     10 H           1.0135    4.5527    5.7763 H       1  UNL1        0.0572
@<TRIPOS>BOND
     1     7     2    1
     2     2     3    1
     3     2     1    1
     4     8     3    1
     5     3     4    1
     6     6     1    1
     7     1     5    1
     8     4     5    2
     9     4     9    1
    10     5    10    1
