@<TRIPOS>MOLECULE
1,2,3,4,5
 10 10 0 0 0
SMALL
GASTEIGER

@<TRIPOS>ATOM
      1 C           0.5262    5.9395    1.0510 C.2     1  UNL1       -0.0763
      2 C           1.6929    6.4962    0.4923 C.2     1  UNL1       -0.0654
      3 C           2.0286    7.6453    1.2339 C.2     1  UNL1       -0.0654
      4 C           1.0503    7.8187    2.2345 C.2     1  UNL1       -0.0763
      5 C           0.1246    6.7622    2.1249 C.3     1  UNL1        0.0054
      6 H          -0.0576    5.1313    0.6305 H       1  UNL1        0.0578
      7 H           2.1709    6.1684   -0.4175 H       1  UNL1        0.0615
      8 H           2.8211    8.3448    0.9964 H       1  UNL1        0.0615
      9 H           0.9639    8.6690    2.8960 H       1  UNL1        0.0578
     10 H          -0.8102    6.6852    2.6599 H       1  UNL1        0.0394
@<TRIPOS>BOND
     1     7     2    1
     2     2     1    2
     3     2     3    1
     4     6     1    1
     5     8     3    1
     6     1     5    1
     7     3     4    2
     8     5     4    1
     9     5    10    1
    10     4     9    1
