@<TRIPOS>MOLECULE
1,2,3,4,5
 25 25 0 0 0
SMALL
GASTEIGER

@<TRIPOS>ATOM
      1 C           6.6462    4.9142    4.5112 C.2     1  UNL1       -0.0584
      2 C           6.7566    6.0828    5.3199 C.3     1  UNL1        0.0231
      3 C           6.8929    7.2042    4.4630 C.2     1  UNL1       -0.0584
      4 C           6.9169    6.7163    3.1288 C.2     1  UNL1       -0.0477
      5 C           6.7714    5.3053    3.1603 C.2     1  UNL1       -0.0477
      6 C           6.2545    3.5636    5.0368 C.3     1  UNL1       -0.0424
      7 C           6.5341    6.0838    6.8045 C.3     1  UNL1       -0.0510
      8 C           6.6349    8.6391    4.8302 C.3     1  UNL1       -0.0424
      9 C           6.6965    7.5261    1.8859 C.3     1  UNL1       -0.0395
     10 C           6.4907    4.4836    1.9348 C.3     1  UNL1       -0.0395
     11 H           6.8511    3.2899    5.9066 H       1  UNL1        0.0275
     12 H           6.3744    2.7912    4.2802 H       1  UNL1        0.0275
     13 H           5.2047    3.5802    5.3420 H       1  UNL1        0.0275
     14 H           6.7445    7.0593    7.2358 H       1  UNL1        0.0242
     15 H           7.1805    5.3516    7.2915 H       1  UNL1        0.0242
     16 H           5.4969    5.8193    7.0285 H       1  UNL1        0.0242
     17 H           7.4755    9.2908    4.6034 H       1  UNL1        0.0275
     18 H           6.4128    8.7296    5.8906 H       1  UNL1        0.0275
     19 H           5.7656    9.0006    4.2745 H       1  UNL1        0.0275
     20 H           6.9423    8.5722    2.0455 H       1  UNL1        0.0278
     21 H           7.2851    7.1405    1.0550 H       1  UNL1        0.0278
     22 H           5.6405    7.4699    1.6003 H       1  UNL1        0.0278
     23 H           7.2960    4.5758    1.2045 H       1  UNL1        0.0278
     24 H           6.3592    3.4334    2.1837 H       1  UNL1        0.0278
     25 H           5.5689    4.8336    1.4612 H       1  UNL1        0.0278
@<TRIPOS>BOND
     1    21     9    1
     2    23    10    1
     3    25    10    1
     4    22     9    1
     5     9    20    1
     6     9     4    1
     7    10    24    1
     8    10     5    1
     9     4     5    1
    10     4     3    2
    11     5     1    2
    12    19     8    1
    13    12     6    1
    14     3     8    1
    15     3     2    1
    16     1     6    1
    17     1     2    1
    18    17     8    1
    19     8    18    1
    20     6    13    1
    21     6    11    1
    22     2     7    1
    23     7    16    1
    24     7    14    1
    25     7    15    1
