@<TRIPOS>MOLECULE
1,2,3,4,5
 25 25 0 0 0
SMALL
GASTEIGER

@<TRIPOS>ATOM
      1 C           8.5599    2.2203   10.1168 C.2     1  UNL1       -0.0584
      2 C           7.7950    1.5495   11.1160 C.3     1  UNL1        0.0231
      3 C           6.6480    2.3428   11.4022 C.2     1  UNL1       -0.0584
      4 C           6.7453    3.5370   10.6482 C.2     1  UNL1       -0.0477
      5 C           7.9287    3.4671    9.8558 C.2     1  UNL1       -0.0477
      6 C           9.6364    1.5709    9.2992 C.3     1  UNL1       -0.0424
      7 C           8.0071    0.1365   11.5816 C.3     1  UNL1       -0.0510
      8 C           5.4564    1.8955   12.1936 C.3     1  UNL1       -0.0424
      9 C           5.7056    4.6189   10.6070 C.3     1  UNL1       -0.0395
     10 C           8.3383    4.4732    8.8202 C.3     1  UNL1       -0.0395
     11 H          10.4807    1.2478    9.9041 H       1  UNL1        0.0275
     12 H           9.2210    0.6952    8.7949 H       1  UNL1        0.0275
     13 H          10.0104    2.2512    8.5401 H       1  UNL1        0.0275
     14 H           7.7615    0.0293   12.6404 H       1  UNL1        0.0242
     15 H           9.0383   -0.1774   11.4199 H       1  UNL1        0.0242
     16 H           7.3592   -0.5438   11.0222 H       1  UNL1        0.0242
     17 H           5.7488    1.2496   13.0201 H       1  UNL1        0.0275
     18 H           4.7784    1.3364   11.5428 H       1  UNL1        0.0275
     19 H           4.9140    2.7458   12.6021 H       1  UNL1        0.0275
     20 H           6.1054    5.5258   10.1568 H       1  UNL1        0.0278
     21 H           5.3599    4.8611   11.6138 H       1  UNL1        0.0278
     22 H           4.8437    4.2915   10.0203 H       1  UNL1        0.0278
     23 H           7.7295    4.3585    7.9199 H       1  UNL1        0.0278
     24 H           8.2067    5.4887    9.1953 H       1  UNL1        0.0278
     25 H           9.3847    4.3441    8.5501 H       1  UNL1        0.0278
@<TRIPOS>BOND
     1    23    10    1
     2    13     6    1
     3    25    10    1
     4    12     6    1
     5    10    24    1
     6    10     5    1
     7     6    11    1
     8     6     1    1
     9     5     1    2
    10     5     4    1
    11    22     9    1
    12     1     2    1
    13    20     9    1
    14     9     4    1
    15     9    21    1
    16     4     3    2
    17    16     7    1
    18     2     3    1
    19     2     7    1
    20     3     8    1
    21    15     7    1
    22    18     8    1
    23     7    14    1
    24     8    19    1
    25     8    17    1
