@<TRIPOS>MOLECULE
1,2,3,4,5
 25 25 0 0 0
SMALL
GASTEIGER

@<TRIPOS>ATOM
      1 C           5.8110    3.8325   12.1980 C.2     1  UNL1       -0.0584
      2 C           5.1066    2.6479   12.5690 C.3     1  UNL1        0.0231
      3 C           6.0648    1.6911   13.0065 C.2     1  UNL1       -0.0584
      4 C           7.3576    2.2853   12.9098 C.2     1  UNL1       -0.0477
      5 C           7.1967    3.6076   12.4302 C.2     1  UNL1       -0.0477
      6 C           5.2334    5.1982   11.9681 C.3     1  UNL1       -0.0424
      7 C           3.6223    2.4959   12.7305 C.3     1  UNL1       -0.0510
      8 C           5.7605    0.3811   13.6689 C.3     1  UNL1       -0.0424
      9 C           8.6500    1.6819   13.3761 C.3     1  UNL1       -0.0395
     10 C           8.2612    4.6605   12.3717 C.3     1  UNL1       -0.0395
     11 H           3.2689    1.5749   12.2662 H       1  UNL1        0.0242
     12 H           3.3747    2.4544   13.7940 H       1  UNL1        0.0242
     13 H           3.0925    3.3392   12.2933 H       1  UNL1        0.0242
     14 H           6.3916   -0.4170   13.2778 H       1  UNL1        0.0275
     15 H           5.9426    0.4621   14.7436 H       1  UNL1        0.0275
     16 H           4.7216    0.1011   13.5145 H       1  UNL1        0.0275
     17 H           8.9476    2.1251   14.3297 H       1  UNL1        0.0278
     18 H           8.5485    0.6068   13.5113 H       1  UNL1        0.0278
     19 H           9.4475    1.8625   12.6525 H       1  UNL1        0.0278
     20 H           9.2495    4.2127   12.2906 H       1  UNL1        0.0278
     21 H           8.2295    5.2629   13.2836 H       1  UNL1        0.0278
     22 H           8.1155    5.3236   11.5199 H       1  UNL1        0.0278
     23 H           5.7821    5.7344   11.1941 H       1  UNL1        0.0275
     24 H           4.1859    5.1558   11.6804 H       1  UNL1        0.0275
     25 H           5.3080    5.7786   12.8916 H       1  UNL1        0.0275
@<TRIPOS>BOND
     1    23     6    1
     2    22    10    1
     3    24     6    1
     4     6     1    1
     5     6    25    1
     6     1     5    2
     7     1     2    1
     8    11     7    1
     9    20    10    1
    10    13     7    1
    11    10     5    1
    12    10    21    1
    13     5     4    1
    14     2     7    1
    15     2     3    1
    16    19     9    1
    17     7    12    1
    18     4     3    2
    19     4     9    1
    20     3     8    1
    21    14     8    1
    22     9    18    1
    23     9    17    1
    24    16     8    1
    25     8    15    1
