@<TRIPOS>MOLECULE
1,2,3,4,5
 25 25 0 0 0
SMALL
GASTEIGER

@<TRIPOS>ATOM
      1 C           5.5060    9.6709    3.9892 C.2     1  UNL1       -0.0584
      2 C           5.1349   10.6414    4.9665 C.3     1  UNL1        0.0231
      3 C           5.0280   11.8940    4.3189 C.2     1  UNL1       -0.0584
      4 C           5.3723   11.7188    2.9499 C.2     1  UNL1       -0.0477
      5 C           5.6356   10.3343    2.7355 C.2     1  UNL1       -0.0477
      6 C           5.5104    8.1878    4.2189 C.3     1  UNL1       -0.0424
      7 C           4.7788   10.3634    6.3979 C.3     1  UNL1       -0.0510
      8 C           4.4658   13.1516    4.9082 C.3     1  UNL1       -0.0424
      9 C           5.1884   12.8011    1.9226 C.3     1  UNL1       -0.0395
     10 C           5.8318    9.6425    1.4162 C.3     1  UNL1       -0.0395
     11 H           5.9088    7.6634    3.3546 H       1  UNL1        0.0275
     12 H           6.1121    7.9284    5.0907 H       1  UNL1        0.0275
     13 H           4.4895    7.8400    4.3980 H       1  UNL1        0.0275
     14 H           5.1626   11.1487    7.0516 H       1  UNL1        0.0242
     15 H           5.1997    9.4136    6.7240 H       1  UNL1        0.0242
     16 H           3.6930   10.3214    6.5158 H       1  UNL1        0.0242
     17 H           4.9593   14.0333    4.5023 H       1  UNL1        0.0275
     18 H           4.5832   13.1633    5.9898 H       1  UNL1        0.0275
     19 H           3.3987   13.2178    4.6781 H       1  UNL1        0.0275
     20 H           5.4543   12.4650    0.9224 H       1  UNL1        0.0278
     21 H           5.7869   13.6805    2.1671 H       1  UNL1        0.0278
     22 H           4.1407   13.1100    1.9044 H       1  UNL1        0.0278
     23 H           5.6289   10.3192    0.5880 H       1  UNL1        0.0278
     24 H           6.8484    9.2597    1.3151 H       1  UNL1        0.0278
     25 H           5.1395    8.8035    1.3343 H       1  UNL1        0.0278
@<TRIPOS>BOND
     1    23    10    1
     2    20     9    1
     3    24    10    1
     4    25    10    1
     5    10     5    1
     6    22     9    1
     7     9    21    1
     8     9     4    1
     9     5     4    1
    10     5     1    2
    11     4     3    2
    12    11     6    1
    13     1     6    1
    14     1     2    1
    15     6    13    1
    16     6    12    1
    17     3     8    1
    18     3     2    1
    19    17     8    1
    20    19     8    1
    21     8    18    1
    22     2     7    1
    23     7    16    1
    24     7    15    1
    25     7    14    1
