@<TRIPOS>MOLECULE
5,6,7,8,9
 74 74 0 0 0
SMALL
GASTEIGER

@<TRIPOS>ATOM
      1 P           8.4948   -0.7331    3.9499 P.3     1  UNL1        0.0000
      2 P          11.4983    3.7588    3.7995 P.3     1  UNL1        0.0000
      3 SI          5.7928    0.7911    3.8143 Si      1  UNL1        0.0000
      4 SI          9.0485    5.6591    3.6398 Si      1  UNL1        0.0000
      5 C           7.0158    2.1268    4.2650 C.2     1  UNL1        0.0000
      6 C           7.8227    2.1772    5.4377 C.2     1  UNL1        0.0000
      7 C           8.5984    3.3372    5.3964 C.3     1  UNL1        0.0000
      8 C           8.2978    4.0435    4.1965 C.2     1  UNL1        0.0000
      9 C           7.3297    3.2782    3.5121 C.2     1  UNL1        0.0000
     10 C           6.6710   -0.8716    4.2432 C.3     1  UNL1        0.0000
     11 C           5.3235    0.9170    1.9699 C.3     1  UNL1        0.0000
     12 C           4.2000    0.8597    4.8704 C.3     1  UNL1        0.0000
     13 C           8.7012    5.9452    1.7863 C.3     1  UNL1        0.0000
     14 C           8.4023    7.1580    4.6363 C.3     1  UNL1        0.0000
     15 C          10.9317    5.5075    4.0275 C.3     1  UNL1        0.0000
     16 C           8.7090   -1.9316    2.5271 C.3     1  UNL1        0.0000
     17 C           8.0447   -1.3430    1.2874 C.3     1  UNL1        0.0000
     18 C          10.1959   -2.1696    2.2777 C.3     1  UNL1        0.0000
     19 C           9.2069   -1.7645    5.3603 C.3     1  UNL1        0.0000
     20 C           9.1248   -0.9697    6.6619 C.3     1  UNL1        0.0000
     21 C           8.5839   -3.1466    5.5333 C.3     1  UNL1        0.0000
     22 C          12.6480    3.9546    2.3345 C.3     1  UNL1        0.0000
     23 C          13.4288    2.6606    2.1205 C.3     1  UNL1        0.0000
     24 C          11.8174    4.2901    1.1008 C.3     1  UNL1        0.0000
     25 C          12.7629    3.5617    5.1860 C.3     1  UNL1        0.0000
     26 C          12.0347    3.3920    6.5178 C.3     1  UNL1        0.0000
     27 C          13.8031    4.6741    5.2796 C.3     1  UNL1        0.0000
     28 H           7.7323    1.5055    6.2822 H       1  UNL1        0.0000
     29 H           9.2112    3.7183    6.2036 H       1  UNL1        0.0000
     30 H           6.7793    3.6156    2.6465 H       1  UNL1        0.0000
     31 H           6.2660   -1.7238    3.6995 H       1  UNL1        0.0000
     32 H           6.5196   -1.0607    5.3064 H       1  UNL1        0.0000
     33 H           6.1928    1.0150    1.3250 H       1  UNL1        0.0000
     34 H           4.7558    0.0515    1.6423 H       1  UNL1        0.0000
     35 H           4.6956    1.7879    1.8111 H       1  UNL1        0.0000
     36 H           3.6459    1.7695    4.6675 H       1  UNL1        0.0000
     37 H           4.4144    0.8394    5.9343 H       1  UNL1        0.0000
     38 H           3.5471    0.0215    4.6486 H       1  UNL1        0.0000
     39 H           7.6519    6.1831    1.6437 H       1  UNL1        0.0000
     40 H           9.2727    6.7821    1.3970 H       1  UNL1        0.0000
     41 H           8.9264    5.0710    1.1809 H       1  UNL1        0.0000
     42 H           7.3451    7.3129    4.4511 H       1  UNL1        0.0000
     43 H           8.5292    7.0225    5.7057 H       1  UNL1        0.0000
     44 H           8.9215    8.0684    4.3543 H       1  UNL1        0.0000
     45 H          11.0754    5.7687    5.0764 H       1  UNL1        0.0000
     46 H          11.5477    6.1830    3.4357 H       1  UNL1        0.0000
     47 H           8.2151   -2.8777    2.7815 H       1  UNL1        0.0000
     48 H           6.9677   -1.2706    1.4164 H       1  UNL1        0.0000
     49 H           8.4509   -0.3451    1.0922 H       1  UNL1        0.0000
     50 H           8.2398   -1.9700    0.4188 H       1  UNL1        0.0000
     51 H          10.3415   -2.6881    1.3314 H       1  UNL1        0.0000
     52 H          10.7204   -1.2137    2.2344 H       1  UNL1        0.0000
     53 H          10.6428   -2.7722    3.0652 H       1  UNL1        0.0000
     54 H          10.2692   -1.8733    5.1138 H       1  UNL1        0.0000
     55 H           8.0898   -0.7998    6.9593 H       1  UNL1        0.0000
     56 H           9.6165   -1.5161    7.4655 H       1  UNL1        0.0000
     57 H           9.6349   -0.0123    6.5466 H       1  UNL1        0.0000
     58 H           9.0305   -3.6370    6.3974 H       1  UNL1        0.0000
     59 H           7.5115   -3.0813    5.7047 H       1  UNL1        0.0000
     60 H           8.7601   -3.7792    4.6677 H       1  UNL1        0.0000
     61 H          13.3404    4.7818    2.5344 H       1  UNL1        0.0000
     62 H          13.9403    2.6830    1.1596 H       1  UNL1        0.0000
     63 H          12.7441    1.8109    2.1301 H       1  UNL1        0.0000
     64 H          14.1753    2.5099    2.8971 H       1  UNL1        0.0000
     65 H          11.0448    3.5276    0.9597 H       1  UNL1        0.0000
     66 H          12.4478    4.3095    0.2132 H       1  UNL1        0.0000
     67 H          11.3436    5.2634    1.1994 H       1  UNL1        0.0000
     68 H          13.2652    2.6122    4.9684 H       1  UNL1        0.0000
     69 H          12.7507    3.1832    7.3115 H       1  UNL1        0.0000
     70 H          11.4893    4.2956    6.7904 H       1  UNL1        0.0000
     71 H          11.3437    2.5498    6.4599 H       1  UNL1        0.0000
     72 H          14.4499    4.4906    6.1368 H       1  UNL1        0.0000
     73 H          14.4322    4.7133    4.3947 H       1  UNL1        0.0000
     74 H          13.3349    5.6464    5.4177 H       1  UNL1        0.0000
@<TRIPOS>BOND
     1    66    24    1
     2    50    17    1
     3    65    24    1
     4    49    17    1
     5    24    67    1
     6    24    22    1
     7    62    23    1
     8    41    13    1
     9    17    48    1
    10    17    16    1
    11    33    11    1
    12    51    18    1
    13    40    13    1
    14    34    11    1
    15    39    13    1
    16    13     4    1
    17    35    11    1
    18    11     3    1
    19    23    63    1
    20    23    22    1
    21    23    64    1
    22    52    18    1
    23    18    16    1
    24    18    53    1
    25    22    61    1
    26    22     2    1
    27    16    47    1
    28    16     1    1
    29    30     9    1
    30    46    15    1
    31     9     8    2
    32     9     5    1
    33     4    15    1
    34     4     8    1
    35     4    14    1
    36    31    10    1
    37     2    15    1
    38     2    25    1
    39     3    10    1
    40     3     5    1
    41     3    12    1
    42     1    10    1
    43     1    19    1
    44    15    45    1
    45     8     7    1
    46    10    32    1
    47     5     6    2
    48    44    14    1
    49    73    27    1
    50    42    14    1
    51    14    43    1
    52    38    12    1
    53    36    12    1
    54    60    21    1
    55    12    37    1
    56    68    25    1
    57    54    19    1
    58    25    27    1
    59    25    26    1
    60    27    74    1
    61    27    72    1
    62    19    21    1
    63    19    20    1
    64     7     6    1
    65     7    29    1
    66     6    28    1
    67    21    59    1
    68    21    58    1
    69    71    26    1
    70    26    70    1
    71    26    69    1
    72    57    20    1
    73    20    55    1
    74    20    56    1
