@<TRIPOS>MOLECULE
1,2,3,4,5
 25 25 0 0 0
SMALL
GASTEIGER

@<TRIPOS>ATOM
      1 C           3.0246    0.7098    0.3960 C.3     1  UNL1        0.0052
      2 C           3.9827    1.5871   -0.1930 C.3     1  UNL1       -0.0053
      3 C           4.1756    2.7000    0.7040 C.3     1  UNL1        0.0052
      4 C           3.3072    2.5249    1.8193 C.2     1  UNL1       -0.0658
      5 C           2.6222    1.2869    1.6501 C.2     1  UNL1       -0.0658
      6 C           2.3087   -0.4054   -0.3041 C.3     1  UNL1       -0.0545
      7 H           1.4690    0.0045   -0.8715 H       1  UNL1        0.0239
      8 H           1.9180   -1.1311    0.4070 H       1  UNL1        0.0239
      9 H           2.9714   -0.9227   -0.9938 H       1  UNL1        0.0239
     10 C           4.4318    1.5441   -1.6209 C.3     1  UNL1       -0.0574
     11 H           3.6557    1.9837   -2.2527 H       1  UNL1        0.0236
     12 H           4.6044    0.5211   -1.9477 H       1  UNL1        0.0236
     13 H           5.3505    2.1092   -1.7641 H       1  UNL1        0.0236
     14 C           4.8723    3.9759    0.3351 C.3     1  UNL1       -0.0545
     15 H           5.1645    4.5458    1.2154 H       1  UNL1        0.0239
     16 H           4.1996    4.5940   -0.2653 H       1  UNL1        0.0239
     17 H           5.7683    3.7821   -0.2516 H       1  UNL1        0.0239
     18 C           2.9661    3.5676    2.8411 C.3     1  UNL1       -0.0430
     19 H           2.0354    4.0626    2.5514 H       1  UNL1        0.0275
     20 H           3.7458    4.3240    2.9051 H       1  UNL1        0.0275
     21 H           2.8248    3.1380    3.8326 H       1  UNL1        0.0275
     22 C           1.4211    0.8473    2.4348 C.3     1  UNL1       -0.0430
     23 H           0.5186    1.1659    1.9069 H       1  UNL1        0.0275
     24 H           1.4054    1.2929    3.4277 H       1  UNL1        0.0275
     25 H           1.3843   -0.2361    2.5388 H       1  UNL1        0.0275
@<TRIPOS>BOND
     1    11    10    1
     2    12    10    1
     3    13    10    1
     4    10     2    1
     5     9     6    1
     6     7     6    1
     7     6     1    1
     8     6     8    1
     9    16    14    1
    10    17    14    1
    11     2     1    1
    12     2     3    1
    13    14     3    1
    14    14    15    1
    15     1     5    1
    16     3     4    1
    17     5     4    2
    18     5    22    1
    19     4    18    1
    20    23    22    1
    21    22    25    1
    22    22    24    1
    23    19    18    1
    24    18    20    1
    25    18    21    1
