@<TRIPOS>MOLECULE
1,3,5,7,9
 10 10 0 0 0
SMALL
GASTEIGER

@<TRIPOS>ATOM
      1 C           6.3533    8.2485    6.5188 C.3     1  UNL1       -0.0127
      2 H           5.4108    7.9391    6.9519 H       1  UNL1        0.0352
      3 C           6.6576    9.5514    6.0274 C.3     1  UNL1       -0.0235
      4 H           5.9867   10.4007    6.0557 H       1  UNL1        0.0315
      5 C           8.0537    9.6025    5.8050 C.3     1  UNL1       -0.0127
      6 H           8.6172   10.4838    5.5376 H       1  UNL1        0.0352
      7 C           8.5981    8.3522    6.1485 C.2     1  UNL1       -0.0837
      8 H           9.6456    8.1054    6.1769 H       1  UNL1        0.0572
      9 C           7.5595    7.5325    6.6071 C.2     1  UNL1       -0.0837
     10 H           7.6725    6.5437    7.0212 H       1  UNL1        0.0572
@<TRIPOS>BOND
     1     6     5    1
     2     5     3    1
     3     5     7    1
     4     3     4    1
     5     3     1    1
     6     7     8    1
     7     7     9    2
     8     1     9    1
     9     1     2    1
    10     9    10    1
