@<TRIPOS>MOLECULE
1,3,5,7,9
 10 10 0 0 0
SMALL
GASTEIGER

@<TRIPOS>ATOM
      1 C           4.6644    9.4628    3.3941 C.2     1  UNL1       -0.0763
      2 H           4.5281   10.5185    3.5745 H       1  UNL1        0.0578
      3 C           5.1268    8.8769    2.1967 C.2     1  UNL1       -0.0654
      4 H           5.4668    9.4092    1.3205 H       1  UNL1        0.0615
      5 C           4.9206    7.4831    2.2926 C.2     1  UNL1       -0.0654
      6 H           5.0863    6.7575    1.5109 H       1  UNL1        0.0615
      7 C           4.3268    7.2130    3.5361 C.2     1  UNL1       -0.0763
      8 H           3.9607    6.2520    3.8639 H       1  UNL1        0.0578
      9 C           4.1777    8.4300    4.2255 C.3     1  UNL1        0.0054
     10 H           3.6123    8.5741    5.1361 H       1  UNL1        0.0394
@<TRIPOS>BOND
     1     4     3    1
     2     6     5    1
     3     3     5    1
     4     3     1    2
     5     5     7    2
     6     1     2    1
     7     1     9    1
     8     7     8    1
     9     7     9    1
    10     9    10    1
