@<TRIPOS>MOLECULE
3,4,6,8,9
 34 34 0 0 0
SMALL
GASTEIGER

@<TRIPOS>ATOM
      1 SI          4.6036    0.1294    2.8880 Si      1  UNL1        0.0000
      2 SI         -1.2780   -0.0638    2.6522 Si      1  UNL1        0.0000
      3 C           2.7970    0.0643    3.4270 C.3     1  UNL1        0.0000
      4 C           2.3035   -0.5504    4.6200 C.3     1  UNL1        0.0000
      5 H           2.9161   -0.9943    5.3854 H       1  UNL1        0.0000
      6 C           0.9036   -0.5752    4.5667 C.2     1  UNL1        0.0000
      7 H           0.2525   -1.0338    5.2913 H       1  UNL1        0.0000
      8 C           0.4715    0.0446    3.3520 C.2     1  UNL1        0.0000
      9 C           1.6586    0.4058    2.6593 C.3     1  UNL1        0.0000
     10 H           1.6884    0.8487    1.6786 H       1  UNL1        0.0000
     11 C           4.7424   -0.7205    1.1948 C.3     1  UNL1        0.0000
     12 H           5.7743   -0.7370    0.8598 H       1  UNL1        0.0000
     13 H           4.1600   -0.2054    0.4371 H       1  UNL1        0.0000
     14 H           4.3954   -1.7484    1.2355 H       1  UNL1        0.0000
     15 C           5.0358    1.9804    2.7810 C.3     1  UNL1        0.0000
     16 H           6.0269    2.1438    2.3732 H       1  UNL1        0.0000
     17 H           5.0041    2.4340    3.7696 H       1  UNL1        0.0000
     18 H           4.3234    2.4964    2.1435 H       1  UNL1        0.0000
     19 C           5.6547   -0.7228    4.2243 C.3     1  UNL1        0.0000
     20 H           5.5302   -0.2581    5.1989 H       1  UNL1        0.0000
     21 H           6.7089   -0.6722    3.9727 H       1  UNL1        0.0000
     22 H           5.3970   -1.7727    4.3227 H       1  UNL1        0.0000
     23 C          -1.2997   -1.5740    1.4971 C.3     1  UNL1        0.0000
     24 H          -0.5873   -1.4667    0.6847 H       1  UNL1        0.0000
     25 H          -2.2827   -1.7059    1.0562 H       1  UNL1        0.0000
     26 H          -1.0543   -2.4880    2.0297 H       1  UNL1        0.0000
     27 C          -1.6883    1.5332    1.6998 C.3     1  UNL1        0.0000
     28 H          -1.0718    1.6295    0.8118 H       1  UNL1        0.0000
     29 H          -1.5469    2.4205    2.3103 H       1  UNL1        0.0000
     30 H          -2.7225    1.5247    1.3718 H       1  UNL1        0.0000
     31 C          -2.4943   -0.2755    4.1018 C.3     1  UNL1        0.0000
     32 H          -3.5156   -0.3215    3.7383 H       1  UNL1        0.0000
     33 H          -2.4393    0.5462    4.8118 H       1  UNL1        0.0000
     34 H          -2.3074   -1.1956    4.6460 H       1  UNL1        0.0000
@<TRIPOS>BOND
     1    13    11    1
     2    24    23    1
     3    28    27    1
     4    12    11    1
     5    25    23    1
     6    11    14    1
     7    11     1    1
     8    30    27    1
     9    23    26    1
    10    23     2    1
    11    10     9    1
    12    27    29    1
    13    27     2    1
    14    18    15    1
    15    16    15    1
    16     2     8    1
    17     2    31    1
    18     9     8    1
    19     9     3    1
    20    15     1    1
    21    15    17    1
    22     1     3    1
    23     1    19    1
    24     8     6    2
    25     3     4    1
    26    32    31    1
    27    21    19    1
    28    31    34    1
    29    31    33    1
    30    19    22    1
    31    19    20    1
    32     6     4    1
    33     6     7    1
    34     4     5    1
