@<TRIPOS>MOLECULE
1,2,4,6,8
 34 37 0 0 0
SMALL
GASTEIGER

@<TRIPOS>ATOM
      1 C           3.2107    4.6240    6.4590 C.2     1  UNL1       -0.0583
      2 C           4.4508    3.9822    6.2769 C.3     1  UNL1        0.0090
      3 H           5.3603    4.2009    6.8194 H       1  UNL1        0.0397
      4 C           4.2708    2.8833    5.4032 C.2     1  UNL1       -0.0760
      5 H           5.0018    2.1071    5.2069 H       1  UNL1        0.0578
      6 C           2.9149    2.8479    5.0352 C.2     1  UNL1       -0.0651
      7 H           2.4157    2.0572    4.4916 H       1  UNL1        0.0615
      8 C           2.2710    3.9392    5.6463 C.2     1  UNL1       -0.0619
      9 H           1.2052    4.1187    5.6090 H       1  UNL1        0.0617
     10 C           2.9520    5.7644    7.4142 C.3     1  UNL1       -0.0133
     11 H           3.4083    6.6671    6.9906 H       1  UNL1        0.0351
     12 C           1.4618    6.0635    7.6354 C.3     1  UNL1       -0.0337
     13 H           0.9821    6.2207    6.6627 H       1  UNL1        0.0307
     14 C           1.3348    7.3435    8.4639 C.3     1  UNL1       -0.0468
     15 H           1.8035    8.1763    7.9338 H       1  UNL1        0.0271
     16 H           0.2796    7.5899    8.6051 H       1  UNL1        0.0271
     17 C           2.0045    7.1461    9.8234 C.3     1  UNL1       -0.0403
     18 H           1.9166    8.0672   10.4116 H       1  UNL1        0.0301
     19 C           3.4800    6.8070    9.6224 C.3     1  UNL1       -0.0468
     20 H           3.9624    6.6648   10.5926 H       1  UNL1        0.0271
     21 H           3.9874    7.6315    9.1151 H       1  UNL1        0.0271
     22 C           3.6012    5.5302    8.7910 C.3     1  UNL1       -0.0337
     23 H           4.6615    5.2909    8.6606 H       1  UNL1        0.0307
     24 C           0.7721    4.9215    8.3834 C.3     1  UNL1       -0.0468
     25 H          -0.2858    5.1604    8.5202 H       1  UNL1        0.0271
     26 H           0.8385    3.9950    7.8125 H       1  UNL1        0.0271
     27 C           1.3238    5.9985   10.5674 C.3     1  UNL1       -0.0473
     28 H           0.2705    6.2357   10.7354 H       1  UNL1        0.0271
     29 H           1.7944    5.8570   11.5434 H       1  UNL1        0.0271
     30 C           2.9131    4.3763    9.5164 C.3     1  UNL1       -0.0468
     31 H           2.9950    3.4675    8.9159 H       1  UNL1        0.0271
     32 H           3.4056    4.1956   10.4751 H       1  UNL1        0.0271
     33 C           1.4419    4.7196    9.7402 C.3     1  UNL1       -0.0403
     34 H           0.9508    3.8958   10.2711 H       1  UNL1        0.0301
@<TRIPOS>BOND
     1     7     6    1
     2     6     4    2
     3     6     8    1
     4     5     4    1
     5     4     2    1
     6     9     8    1
     7     8     1    2
     8     2     1    1
     9     2     3    1
    10     1    10    1
    11    13    12    1
    12    11    10    1
    13    10    12    1
    14    10    22    1
    15    12    24    1
    16    12    14    1
    17    26    24    1
    18    15    14    1
    19    24    25    1
    20    24    33    1
    21    14    16    1
    22    14    17    1
    23    23    22    1
    24    22    30    1
    25    22    19    1
    26    31    30    1
    27    21    19    1
    28    30    33    1
    29    30    32    1
    30    19    17    1
    31    19    20    1
    32    33    34    1
    33    33    27    1
    34    17    18    1
    35    17    27    1
    36    27    28    1
    37    27    29    1
