@<TRIPOS>MOLECULE
1,2,4,6,8
 34 37 0 0 0
SMALL
GASTEIGER

@<TRIPOS>ATOM
      1 C           3.0381    3.7071    1.9794 C.2     1  UNL1       -0.0656
      2 C           4.0382    2.8024    2.3615 C.2     1  UNL1       -0.0802
      3 H           3.9207    1.7406    2.5194 H       1  UNL1        0.0575
      4 C           5.2647    3.4861    2.4479 C.3     1  UNL1       -0.0124
      5 H           6.2273    3.0187    2.6068 H       1  UNL1        0.0352
      6 C           5.0530    4.8210    2.0571 C.3     1  UNL1       -0.0232
      7 H           5.8259    5.5503    1.8518 H       1  UNL1        0.0316
      8 C           3.6673    4.9707    1.7925 C.3     1  UNL1       -0.0092
      9 H           3.2148    5.8328    1.3197 H       1  UNL1        0.0354
     10 C           1.5736    3.3964    1.7595 C.3     1  UNL1       -0.0139
     11 H           1.0456    3.5140    2.7203 H       1  UNL1        0.0351
     12 C           0.9115    4.3454    0.7467 C.3     1  UNL1       -0.0338
     13 H           1.0544    5.3817    1.0718 H       1  UNL1        0.0307
     14 C          -0.5889    4.0574    0.6819 C.3     1  UNL1       -0.0468
     15 H          -1.0416    4.2111    1.6650 H       1  UNL1        0.0271
     16 H          -1.0663    4.7494   -0.0160 H       1  UNL1        0.0271
     17 C          -0.8173    2.6188    0.2235 C.3     1  UNL1       -0.0403
     18 H          -1.8933    2.4133    0.1809 H       1  UNL1        0.0301
     19 C          -0.1538    1.6647    1.2138 C.3     1  UNL1       -0.0468
     20 H          -0.3164    0.6309    0.8993 H       1  UNL1        0.0271
     21 H          -0.6006    1.7860    2.2042 H       1  UNL1        0.0271
     22 C           1.3461    1.9532    1.2776 C.3     1  UNL1       -0.0338
     23 H           1.8056    1.2526    1.9828 H       1  UNL1        0.0307
     24 C           1.5246    4.1484   -0.6394 C.3     1  UNL1       -0.0468
     25 H           2.5960    4.3543   -0.6062 H       1  UNL1        0.0271
     26 H           1.0669    4.8437   -1.3475 H       1  UNL1        0.0271
     27 C          -0.2042    2.4217   -1.1620 C.3     1  UNL1       -0.0473
     28 H          -0.6820    3.0937   -1.8788 H       1  UNL1        0.0271
     29 H          -0.3728    1.3967   -1.5009 H       1  UNL1        0.0271
     30 C           1.9617    1.7582   -0.1068 C.3     1  UNL1       -0.0468
     31 H           1.8225    0.7237   -0.4305 H       1  UNL1        0.0271
     32 H           3.0341    1.9597   -0.0659 H       1  UNL1        0.0271
     33 C           1.2951    2.7097   -1.0983 C.3     1  UNL1       -0.0403
     34 H           1.7357    2.5686   -2.0919 H       1  UNL1        0.0301
@<TRIPOS>BOND
     1    34    33    1
     2    28    27    1
     3    29    27    1
     4    26    24    1
     5    27    33    1
     6    27    17    1
     7    33    24    1
     8    33    30    1
     9    24    25    1
    10    24    12    1
    11    31    30    1
    12    30    32    1
    13    30    22    1
    14    16    14    1
    15    18    17    1
    16    17    14    1
    17    17    19    1
    18    14    12    1
    19    14    15    1
    20    12    13    1
    21    12    10    1
    22    20    19    1
    23    19    22    1
    24    19    21    1
    25    22    10    1
    26    22    23    1
    27     9     8    1
    28    10     1    1
    29    10    11    1
    30     8     1    1
    31     8     6    1
    32     7     6    1
    33     1     2    2
    34     6     4    1
    35     2     4    1
    36     2     3    1
    37     4     5    1
