@<TRIPOS>MOLECULE
2,3,4,5,6
 40 40 0 0 0
SMALL
GASTEIGER

@<TRIPOS>ATOM
      1 SI          1.3729    3.3500    9.4651 Si      1  UNL1        0.0000
      2 C           1.4369    1.7593    8.4402 C.3     1  UNL1        0.0000
      3 C           0.3335    1.1925    7.7259 C.2     1  UNL1        0.0000
      4 C           0.6388   -0.1623    7.4126 C.2     1  UNL1        0.0000
      5 C           1.9254   -0.4450    7.9264 C.2     1  UNL1        0.0000
      6 C           2.4305    0.7338    8.5331 C.2     1  UNL1        0.0000
      7 C          -1.0556    1.7570    7.7334 C.3     1  UNL1        0.0000
      8 H          -1.6366    1.4456    6.8686 H       1  UNL1        0.0000
      9 H          -1.0409    2.8412    7.7781 H       1  UNL1        0.0000
     10 H          -1.5762    1.3890    8.6212 H       1  UNL1        0.0000
     11 C          -0.3372   -1.2209    6.9865 C.3     1  UNL1        0.0000
     12 H           0.0480   -1.8352    6.1744 H       1  UNL1        0.0000
     13 H          -1.2867   -0.7923    6.6807 H       1  UNL1        0.0000
     14 H          -0.5315   -1.8802    7.8361 H       1  UNL1        0.0000
     15 C           2.5682   -1.7955    8.0115 C.3     1  UNL1        0.0000
     16 H           2.7284   -2.0551    9.0597 H       1  UNL1        0.0000
     17 H           3.5390   -1.8060    7.5135 H       1  UNL1        0.0000
     18 H           1.9379   -2.5586    7.5604 H       1  UNL1        0.0000
     19 C           3.7064    0.7753    9.3157 C.3     1  UNL1        0.0000
     20 H           3.5057    0.5523   10.3661 H       1  UNL1        0.0000
     21 H           4.1758    1.7536    9.2529 H       1  UNL1        0.0000
     22 H           4.4072    0.0326    8.9353 H       1  UNL1        0.0000
     23 C           0.8202    4.8443    8.3964 C.3     1  UNL1        0.0000
     24 H           1.2462    5.7621    8.7878 H       1  UNL1        0.0000
     25 H          -0.2585    4.9731    8.3815 H       1  UNL1        0.0000
     26 H           1.1737    4.7353    7.3753 H       1  UNL1        0.0000
     27 C           2.9681    3.8656   10.3804 C.3     1  UNL1        0.0000
     28 H           3.7900    4.0300    9.6927 H       1  UNL1        0.0000
     29 H           3.2801    3.1321   11.1162 H       1  UNL1        0.0000
     30 H           2.7917    4.8007   10.9038 H       1  UNL1        0.0000
     31 C           0.0297    3.0204   10.8172 C.3     1  UNL1        0.0000
     32 H          -0.9535    2.9634   10.3420 H       1  UNL1        0.0000
     33 C          -0.0312    4.1606   11.8274 C.3     1  UNL1        0.0000
     34 H          -0.8407    4.0023   12.5394 H       1  UNL1        0.0000
     35 H          -0.1986    5.1105   11.3260 H       1  UNL1        0.0000
     36 H           0.8986    4.2275   12.3856 H       1  UNL1        0.0000
     37 C           0.2695    1.6949   11.5361 C.3     1  UNL1        0.0000
     38 H           1.2189    1.7170   12.0661 H       1  UNL1        0.0000
     39 H           0.2937    0.8693   10.8279 H       1  UNL1        0.0000
     40 H          -0.5176    1.5012   12.2643 H       1  UNL1        0.0000
@<TRIPOS>BOND
     1    12    11    1
     2    13    11    1
     3     8     7    1
     4    11     4    1
     5    11    14    1
     6    26    23    1
     7     4     3    2
     8     4     5    1
     9    17    15    1
    10    18    15    1
    11     3     7    1
    12     3     2    1
    13     7     9    1
    14     7    10    1
    15     5    15    1
    16     5     6    2
    17    15    16    1
    18    25    23    1
    19    23    24    1
    20    23     1    1
    21     2     6    1
    22     2     1    1
    23     6    19    1
    24    22    19    1
    25    21    19    1
    26    19    20    1
    27     1    27    1
    28     1    31    1
    29    28    27    1
    30    32    31    1
    31    27    30    1
    32    27    29    1
    33    31    37    1
    34    31    33    1
    35    39    37    1
    36    35    33    1
    37    37    38    1
    38    37    40    1
    39    33    36    1
    40    33    34    1
