@<TRIPOS>MOLECULE
2,3,4,5,6
 40 40 0 0 0
SMALL
GASTEIGER

@<TRIPOS>ATOM
      1 SI          2.6418   -0.3867    3.1801 Si      1  UNL1        0.0000
      2 C           2.0626    1.1450    4.1307 C.3     1  UNL1        0.0000
      3 C           2.7672    2.3839    4.2511 C.3     1  UNL1        0.0000
      4 C           1.8593    3.3825    4.6877 C.2     1  UNL1        0.0000
      5 C           0.5968    2.7767    4.8866 C.2     1  UNL1        0.0000
      6 C           0.7165    1.3997    4.5440 C.3     1  UNL1        0.0000
      7 C           4.1652    2.6789    3.8038 C.3     1  UNL1        0.0000
      8 H           4.1778    2.8790    2.7300 H       1  UNL1        0.0000
      9 H           4.8287    1.8425    4.0080 H       1  UNL1        0.0000
     10 H           4.5500    3.5574    4.3210 H       1  UNL1        0.0000
     11 C           2.1510    4.8516    4.7197 C.3     1  UNL1        0.0000
     12 H           2.4677    5.1795    3.7277 H       1  UNL1        0.0000
     13 H           2.9554    5.0823    5.4197 H       1  UNL1        0.0000
     14 H           1.2689    5.4206    5.0045 H       1  UNL1        0.0000
     15 C          -0.6809    3.5516    5.0342 C.3     1  UNL1        0.0000
     16 H          -0.6652    4.2127    5.8990 H       1  UNL1        0.0000
     17 H          -1.5425    2.8954    5.1109 H       1  UNL1        0.0000
     18 H          -0.8180    4.1730    4.1457 H       1  UNL1        0.0000
     19 C          -0.4475    0.5121    4.2193 C.3     1  UNL1        0.0000
     20 H          -1.2783    0.6465    4.9077 H       1  UNL1        0.0000
     21 H          -0.1572   -0.5337    4.2147 H       1  UNL1        0.0000
     22 H          -0.8114    0.7665    3.2205 H       1  UNL1        0.0000
     23 C           2.2238   -1.9945    4.1398 C.3     1  UNL1        0.0000
     24 H           2.9608   -2.7612    3.9252 H       1  UNL1        0.0000
     25 H           1.2519   -2.4005    3.8731 H       1  UNL1        0.0000
     26 H           2.2467   -1.8174    5.2111 H       1  UNL1        0.0000
     27 C           4.4882   -0.4720    2.6992 C.3     1  UNL1        0.0000
     28 H           5.1318   -0.4471    3.5713 H       1  UNL1        0.0000
     29 H           4.7819    0.3340    2.0351 H       1  UNL1        0.0000
     30 H           4.6785   -1.4082    2.1827 H       1  UNL1        0.0000
     31 C           1.6310   -0.3657    1.5316 C.3     1  UNL1        0.0000
     32 H           0.5774   -0.5576    1.7524 H       1  UNL1        0.0000
     33 C           1.7148    0.9919    0.8382 C.3     1  UNL1        0.0000
     34 H           2.7416    1.2103    0.5542 H       1  UNL1        0.0000
     35 H           1.3671    1.7850    1.4970 H       1  UNL1        0.0000
     36 H           1.1064    1.0035   -0.0658 H       1  UNL1        0.0000
     37 C           2.0940   -1.4672    0.5845 C.3     1  UNL1        0.0000
     38 H           1.4690   -1.4967   -0.3076 H       1  UNL1        0.0000
     39 H           2.0425   -2.4387    1.0695 H       1  UNL1        0.0000
     40 H           3.1198   -1.2956    0.2702 H       1  UNL1        0.0000
@<TRIPOS>BOND
     1    38    37    1
     2    36    33    1
     3    40    37    1
     4    34    33    1
     5    37    39    1
     6    37    31    1
     7    33    35    1
     8    33    31    1
     9    31    32    1
    10    31     1    1
    11    29    27    1
    12    30    27    1
    13    27     1    1
    14    27    28    1
    15     8     7    1
    16     1     2    1
    17     1    23    1
    18    22    19    1
    19    12    11    1
    20     7     9    1
    21     7     3    1
    22     7    10    1
    23    25    23    1
    24    24    23    1
    25     2     3    1
    26     2     6    1
    27    23    26    1
    28    18    15    1
    29    21    19    1
    30    19     6    1
    31    19    20    1
    32     3     4    1
    33     6     5    1
    34     4    11    1
    35     4     5    2
    36    11    14    1
    37    11    13    1
    38     5    15    1
    39    15    17    1
    40    15    16    1
