@<TRIPOS>MOLECULE
2,3,4,5,6
 22 22 0 0 0
SMALL
GASTEIGER

@<TRIPOS>ATOM
      1 SI          2.1833    7.3632    6.6524 Si      1  UNL1        0.0000
      2 C           2.0777    5.3455    8.7848 C.2     1  UNL1        0.0000
      3 C           2.6917    5.0356   10.0101 C.2     1  UNL1        0.0000
      4 C           3.6712    6.0252   10.2634 C.3     1  UNL1        0.0000
      5 C           3.6639    6.9257    9.1823 C.3     1  UNL1        0.0000
      6 C           2.6743    6.5123    8.2516 C.3     1  UNL1        0.0000
      7 H           1.2148    4.8452    8.3700 H       1  UNL1        0.0000
      8 H           2.3475    4.2931   10.7174 H       1  UNL1        0.0000
      9 H           4.1852    6.1724   11.2037 H       1  UNL1        0.0000
     10 H           4.2055    7.8605    9.1367 H       1  UNL1        0.0000
     11 C           2.5965    6.2128    5.1794 C.3     1  UNL1        0.0000
     12 H           3.6504    5.9379    5.1747 H       1  UNL1        0.0000
     13 H           2.3698    6.6850    4.2282 H       1  UNL1        0.0000
     14 H           2.0203    5.2932    5.2297 H       1  UNL1        0.0000
     15 C           0.3028    7.7007    6.6555 C.3     1  UNL1        0.0000
     16 H          -0.0021    8.2142    5.7495 H       1  UNL1        0.0000
     17 H           0.0116    8.3187    7.4985 H       1  UNL1        0.0000
     18 H          -0.2639    6.7774    6.7151 H       1  UNL1        0.0000
     19 C           3.1279    9.0134    6.4896 C.3     1  UNL1        0.0000
     20 H           2.8813    9.5122    5.5580 H       1  UNL1        0.0000
     21 H           4.2017    8.8570    6.5058 H       1  UNL1        0.0000
     22 H           2.8775    9.6928    7.2979 H       1  UNL1        0.0000
@<TRIPOS>BOND
     1    13    11    1
     2    12    11    1
     3    11    14    1
     4    11     1    1
     5    20    19    1
     6    16    15    1
     7    19    21    1
     8    19     1    1
     9    19    22    1
    10     1    15    1
    11     1     6    1
    12    15    18    1
    13    15    17    1
    14     6     2    1
    15     6     5    1
    16     7     2    1
    17     2     3    2
    18    10     5    1
    19     5     4    1
    20     3     4    1
    21     3     8    1
    22     4     9    1
