@<TRIPOS>MOLECULE
1,2,3,4,5
 22 22 0 0 0
SMALL
GASTEIGER

@<TRIPOS>ATOM
      1 C           7.0172    4.1392    8.7873 C.2     1  UNL1        0.0000
      2 C           6.4037    4.4518   10.0122 C.2     1  UNL1        0.0000
      3 C           5.4227    3.4643   10.2669 C.2     1  UNL1        0.0000
      4 C           5.4282    2.5623    9.1870 C.3     1  UNL1        0.0000
      5 C           6.4188    2.9726    8.2558 C.2     1  UNL1        0.0000
      6 H           7.8811    4.6375    8.3719 H       1  UNL1        0.0000
      7 H           6.7490    5.1949   10.7184 H       1  UNL1        0.0000
      8 H           4.9082    3.3194   11.2073 H       1  UNL1        0.0000
      9 H           4.8850    1.6284    9.1426 H       1  UNL1        0.0000
     10 SI          6.9092    2.1183    6.6581 Si      1  UNL1        0.0000
     11 C           6.5050    3.2728    5.1858 C.3     1  UNL1        0.0000
     12 C           8.7874    1.7692    6.6667 C.3     1  UNL1        0.0000
     13 C           5.9564    0.4731    6.4929 C.3     1  UNL1        0.0000
     14 H           5.4517    3.5500    5.1775 H       1  UNL1        0.0000
     15 H           6.7346    2.8025    4.2344 H       1  UNL1        0.0000
     16 H           7.0830    4.1910    5.2408 H       1  UNL1        0.0000
     17 H           9.0921    1.2554    5.7608 H       1  UNL1        0.0000
     18 H           9.0715    1.1475    7.5095 H       1  UNL1        0.0000
     19 H           9.3601    2.6886    6.7303 H       1  UNL1        0.0000
     20 H           6.2027   -0.0269    5.5618 H       1  UNL1        0.0000
     21 H           4.8834    0.6348    6.5068 H       1  UNL1        0.0000
     22 H           6.2019   -0.2076    7.3018 H       1  UNL1        0.0000
@<TRIPOS>BOND
     1    15    11    1
     2    14    11    1
     3    11    16    1
     4    11    10    1
     5    20    13    1
     6    17    12    1
     7    13    21    1
     8    13    10    1
     9    13    22    1
    10    10    12    1
    11    10     5    1
    12    12    19    1
    13    12    18    1
    14     5     1    2
    15     5     4    1
    16     6     1    1
    17     1     2    1
    18     9     4    1
    19     4     3    1
    20     2     3    2
    21     2     7    1
    22     3     8    1
