@<TRIPOS>MOLECULE
1,3,5,7,9
 10 10 0 0 0
SMALL
GASTEIGER

@<TRIPOS>ATOM
      1 C           7.6266    4.7258    5.5169 C.3     1  UNL1       -0.0127
      2 H           8.4955    4.4493    4.9304 H       1  UNL1        0.0352
      3 C           7.5973    4.8984    6.9205 C.3     1  UNL1       -0.0235
      4 H           8.4402    4.7746    7.5894 H       1  UNL1        0.0315
      5 C           6.2562    5.1044    7.3051 C.3     1  UNL1       -0.0127
      6 H           5.8886    5.1717    8.3224 H       1  UNL1        0.0352
      7 C           5.4524    5.0439    6.1424 C.2     1  UNL1       -0.0837
      8 H           4.3689    5.0588    6.1232 H       1  UNL1        0.0572
      9 C           6.2971    4.7997    5.0401 C.2     1  UNL1       -0.0837
     10 H           5.9769    4.5873    4.0277 H       1  UNL1        0.0572
@<TRIPOS>BOND
     1    10     9    1
     2     2     1    1
     3     9     1    1
     4     9     7    2
     5     1     3    1
     6     8     7    1
     7     7     5    1
     8     3     5    1
     9     3     4    1
    10     5     6    1
