@<TRIPOS>MOLECULE
1,3,5,7,9
 10 10 0 0 0
SMALL
GASTEIGER

@<TRIPOS>ATOM
      1 C           5.2298    6.8990    8.0422 C.2     1  UNL1       -0.0763
      2 H           5.3688    6.9829    9.1130 H       1  UNL1        0.0578
      3 C           3.9895    6.7513    7.3832 C.3     1  UNL1        0.0054
      4 H           3.0201    6.6801    7.8639 H       1  UNL1        0.0394
      5 C           4.2245    6.8319    5.9940 C.2     1  UNL1       -0.0763
      6 H           3.4633    6.8413    5.2226 H       1  UNL1        0.0578
      7 C           5.6009    7.0431    5.7954 C.2     1  UNL1       -0.0654
      8 H           6.0672    7.2582    4.8443 H       1  UNL1        0.0615
      9 C           6.2299    7.0592    7.0578 C.2     1  UNL1       -0.0654
     10 H           7.2646    7.3154    7.2552 H       1  UNL1        0.0615
@<TRIPOS>BOND
     1     8     7    1
     2     6     5    1
     3     7     5    2
     4     7     9    1
     5     5     3    1
     6     9    10    1
     7     9     1    2
     8     3     4    1
     9     3     1    1
    10     1     2    1
