@<TRIPOS>MOLECULE
1,3,5,7,9
 10 10 0 0 0
SMALL
GASTEIGER

@<TRIPOS>ATOM
      1 C           1.5958   10.8846   -0.5466 C.2     1  UNL1       -0.0837
      2 H           1.7109   11.2279   -1.5689 H       1  UNL1        0.0572
      3 C           2.5775   10.9558    0.4610 C.2     1  UNL1       -0.0837
      4 H           3.5842   11.3335    0.3329 H       1  UNL1        0.0572
      5 C           2.0799   10.2976    1.6030 C.3     1  UNL1       -0.0127
      6 H           2.6393   10.0729    2.5036 H       1  UNL1        0.0352
      7 C           0.7933    9.8031    1.2909 C.3     1  UNL1       -0.0235
      8 H           0.2151    9.1340    1.9170 H       1  UNL1        0.0315
      9 C           0.4997   10.1666   -0.0382 C.3     1  UNL1       -0.0127
     10 H          -0.3675    9.8575   -0.6084 H       1  UNL1        0.0352
@<TRIPOS>BOND
     1     2     1    1
     2    10     9    1
     3     1     9    1
     4     1     3    2
     5     9     7    1
     6     4     3    1
     7     3     5    1
     8     7     5    1
     9     7     8    1
    10     5     6    1
