@<TRIPOS>MOLECULE
1,2,3,4,5
 25 25 0 0 0
SMALL
GASTEIGER

@<TRIPOS>ATOM
      1 C           4.6626    1.8609    1.9471 C.3     1  UNL1        0.0231
      2 C           4.2207    2.1004    0.6016 C.2     1  UNL1       -0.0584
      3 C           3.0276    2.8897    0.6635 C.2     1  UNL1       -0.0477
      4 C           2.7187    3.1234    2.0317 C.2     1  UNL1       -0.0477
      5 C           3.7169    2.4817    2.8325 C.2     1  UNL1       -0.0584
      6 C           6.0278    1.3815    2.3395 C.3     1  UNL1       -0.0510
      7 C           5.0266    1.8967   -0.6476 C.3     1  UNL1       -0.0424
      8 C           2.3961    3.6025   -0.4937 C.3     1  UNL1       -0.0395
      9 C           1.7138    4.1183    2.5282 C.3     1  UNL1       -0.0395
     10 C           3.9138    2.7445    4.2965 C.3     1  UNL1       -0.0424
     11 H           6.7150    2.2302    2.3744 H       1  UNL1        0.0242
     12 H           6.4246    0.6610    1.6255 H       1  UNL1        0.0242
     13 H           6.0263    0.9141    3.3234 H       1  UNL1        0.0242
     14 H           5.5227    2.8319   -0.9179 H       1  UNL1        0.0275
     15 H           4.3915    1.5979   -1.4814 H       1  UNL1        0.0275
     16 H           5.7935    1.1364   -0.5152 H       1  UNL1        0.0275
     17 H           2.8474    4.5922   -0.5980 H       1  UNL1        0.0278
     18 H           1.3265    3.7302   -0.3398 H       1  UNL1        0.0278
     19 H           2.5457    3.0583   -1.4234 H       1  UNL1        0.0278
     20 H           2.1458    5.1210    2.4833 H       1  UNL1        0.0278
     21 H           1.4298    3.9136    3.5578 H       1  UNL1        0.0278
     22 H           0.8144    4.1073    1.9158 H       1  UNL1        0.0278
     23 H           4.3129    3.7521    4.4350 H       1  UNL1        0.0275
     24 H           4.6146    2.0422    4.7428 H       1  UNL1        0.0275
     25 H           2.9712    2.6772    4.8396 H       1  UNL1        0.0275
@<TRIPOS>BOND
     1    15     7    1
     2    19     8    1
     3    14     7    1
     4     7    16    1
     5     7     2    1
     6    17     8    1
     7     8    18    1
     8     8     3    1
     9     2     3    2
    10     2     1    1
    11     3     4    1
    12    12     6    1
    13    22     9    1
    14     1     6    1
    15     1     5    1
    16     4     9    1
    17     4     5    2
    18     6    11    1
    19     6    13    1
    20    20     9    1
    21     9    21    1
    22     5    10    1
    23    10    23    1
    24    10    24    1
    25    10    25    1
