@<TRIPOS>MOLECULE
14,15,17,19,21
 22 22 0 0 0
SMALL
GASTEIGER

@<TRIPOS>ATOM
      1 SI          2.2469    2.1751   -1.4367 Si      1  UNL1        0.0000
      2 C           3.1991    0.5259   -1.2818 C.3     1  UNL1        0.0000
      3 H           2.9298   -0.1631   -2.0761 H       1  UNL1        0.0000
      4 H           2.9771    0.0366   -0.3392 H       1  UNL1        0.0000
      5 H           4.2719    0.6865   -1.3260 H       1  UNL1        0.0000
      6 C           0.3662    1.8219   -1.4261 C.3     1  UNL1        0.0000
      7 H           0.0728    1.2025   -2.2676 H       1  UNL1        0.0000
      8 H          -0.2097    2.7401   -1.4781 H       1  UNL1        0.0000
      9 H           0.0744    1.3035   -0.5188 H       1  UNL1        0.0000
     10 C           2.6666    3.3467    0.0189 C.3     1  UNL1        0.0000
     11 H           2.1329    4.2899   -0.0776 H       1  UNL1        0.0000
     12 H           3.7336    3.5741    0.0441 H       1  UNL1        0.0000
     13 H           2.3906    2.9124    0.9753 H       1  UNL1        0.0000
     14 C           2.7172    3.0186   -3.0490 C.3     1  UNL1        0.0000
     15 C           2.1075    4.1845   -3.5814 C.2     1  UNL1        0.0000
     16 H           1.2578    4.6970   -3.1457 H       1  UNL1        0.0000
     17 C           2.6798    4.4634   -4.8352 C.2     1  UNL1        0.0000
     18 H           2.3365    5.2193   -5.5323 H       1  UNL1        0.0000
     19 C           3.6407    3.4646   -5.1044 C.2     1  UNL1        0.0000
     20 H           4.1555    3.3225   -6.0473 H       1  UNL1        0.0000
     21 C           3.6782    2.5876   -4.0067 C.2     1  UNL1        0.0000
     22 H           4.2355    1.6585   -3.9550 H       1  UNL1        0.0000
@<TRIPOS>BOND
     1    20    19    1
     2    18    17    1
     3    19    17    1
     4    19    21    2
     5    17    15    2
     6    21    22    1
     7    21    14    1
     8    15    16    1
     9    15    14    1
    10    14     1    1
    11     7     6    1
    12     3     2    1
    13     8     6    1
    14     1     6    1
    15     1     2    1
    16     1    10    1
    17     6     9    1
    18     5     2    1
    19     2     4    1
    20    11    10    1
    21    10    12    1
    22    10    13    1
