@<TRIPOS>MOLECULE
1,15,16,19,20
 22 22 0 0 0
SMALL
GASTEIGER

@<TRIPOS>ATOM
      1 C           6.3222    6.4359   -3.0496 C.3     1  UNL1        0.0000
      2 SI          6.7935    7.2789   -1.4374 Si      1  UNL1        0.0000
      3 C           5.8418    8.9283   -1.2817 C.3     1  UNL1        0.0000
      4 H           6.1105    9.6172   -2.0762 H       1  UNL1        0.0000
      5 H           6.0646    9.4175   -0.3393 H       1  UNL1        0.0000
      6 H           4.7689    8.7678   -1.3250 H       1  UNL1        0.0000
      7 C           8.6744    7.6315   -1.4278 C.3     1  UNL1        0.0000
      8 H           8.9674    8.2512   -2.2692 H       1  UNL1        0.0000
      9 H           9.2500    6.7132   -1.4806 H       1  UNL1        0.0000
     10 H           8.9669    8.1493   -0.5204 H       1  UNL1        0.0000
     11 C           6.3741    6.1072    0.0181 C.3     1  UNL1        0.0000
     12 H           6.9072    5.1637   -0.0789 H       1  UNL1        0.0000
     13 H           5.3069    5.8803    0.0438 H       1  UNL1        0.0000
     14 H           6.6507    6.5411    0.9745 H       1  UNL1        0.0000
     15 C           6.9315    5.2701   -3.5828 C.2     1  UNL1        0.0000
     16 C           6.3584    4.9918   -4.8364 C.2     1  UNL1        0.0000
     17 H           7.7813    4.7573   -3.1478 H       1  UNL1        0.0000
     18 H           6.7013    4.2361   -5.5340 H       1  UNL1        0.0000
     19 C           5.3973    5.9907   -5.1045 C.2     1  UNL1        0.0000
     20 C           5.3606    6.8673   -4.0066 C.2     1  UNL1        0.0000
     21 H           4.8819    6.1331   -6.0471 H       1  UNL1        0.0000
     22 H           4.8034    7.7964   -3.9542 H       1  UNL1        0.0000
@<TRIPOS>BOND
     1    21    19    1
     2    18    16    1
     3    19    16    1
     4    19    20    2
     5    16    15    2
     6    20    22    1
     7    20     1    1
     8    15    17    1
     9    15     1    1
    10     1     2    1
    11     8     7    1
    12     4     3    1
    13     9     7    1
    14     2     7    1
    15     2     3    1
    16     2    11    1
    17     7    10    1
    18     6     3    1
    19     3     5    1
    20    12    11    1
    21    11    13    1
    22    11    14    1
