@<TRIPOS>MOLECULE
1,2,3,4,5
 25 25 0 0 0
SMALL
GASTEIGER

@<TRIPOS>ATOM
      1 C           6.5129    6.2108    4.5983 C.2     1  UNL1       -0.0477
      2 C           5.9493    5.6119    5.7639 C.2     1  UNL1       -0.0584
      3 C           6.6327    6.1337    6.9044 C.3     1  UNL1        0.0231
      4 C           7.6011    7.0780    6.4444 C.2     1  UNL1       -0.0584
      5 C           7.5506    7.1070    5.0240 C.2     1  UNL1       -0.0477
      6 C           5.8681    6.1837    3.2396 C.3     1  UNL1       -0.0395
      7 H           6.3689    6.8660    2.5561 H       1  UNL1        0.0278
      8 H           4.8283    6.5048    3.3287 H       1  UNL1        0.0278
      9 H           5.8744    5.1895    2.7964 H       1  UNL1        0.0278
     10 C           4.6830    4.8087    5.8197 C.3     1  UNL1       -0.0424
     11 H           3.8499    5.4556    6.1064 H       1  UNL1        0.0275
     12 H           4.7526    4.0062    6.5531 H       1  UNL1        0.0275
     13 H           4.4590    4.3701    4.8525 H       1  UNL1        0.0275
     14 C           6.2237    5.9414    8.3359 C.3     1  UNL1       -0.0510
     15 H           5.7845    4.9568    8.4888 H       1  UNL1        0.0242
     16 H           5.4816    6.6926    8.6179 H       1  UNL1        0.0242
     17 H           7.0779    6.0428    9.0038 H       1  UNL1        0.0242
     18 C           8.3111    8.0532    7.3380 C.3     1  UNL1       -0.0424
     19 H           7.5754    8.7179    7.7969 H       1  UNL1        0.0275
     20 H           9.0129    8.6678    6.7789 H       1  UNL1        0.0275
     21 H           8.8474    7.5514    8.1438 H       1  UNL1        0.0275
     22 C           8.2415    8.1318    4.1674 C.3     1  UNL1       -0.0395
     23 H           9.2801    8.2714    4.4690 H       1  UNL1        0.0278
     24 H           7.7300    9.0933    4.2579 H       1  UNL1        0.0278
     25 H           8.2364    7.8476    3.1160 H       1  UNL1        0.0278
@<TRIPOS>BOND
     1     7     6    1
     2     9     6    1
     3    25    22    1
     4     6     8    1
     5     6     1    1
     6    22    24    1
     7    22    23    1
     8    22     5    1
     9     1     5    1
    10     1     2    2
    11    13    10    1
    12     5     4    2
    13     2    10    1
    14     2     3    1
    15    10    11    1
    16    10    12    1
    17     4     3    1
    18     4    18    1
    19    20    18    1
    20     3    14    1
    21    18    19    1
    22    18    21    1
    23    14    15    1
    24    14    16    1
    25    14    17    1
