@<TRIPOS>MOLECULE
1,2,3,4,5
 25 25 0 0 0
SMALL
GASTEIGER

@<TRIPOS>ATOM
      1 C           7.3508   13.2529    5.5899 C.2     1  UNL1       -0.0477
      2 C           8.3327   13.2960    4.5441 C.2     1  UNL1       -0.0477
      3 C           9.0378   12.0617    4.5509 C.2     1  UNL1       -0.0584
      4 C           8.4866   11.2461    5.5891 C.3     1  UNL1        0.0231
      5 C           7.4611   11.9905    6.2447 C.2     1  UNL1       -0.0584
      6 C           6.6594   14.4631    6.1543 C.3     1  UNL1       -0.0395
      7 H           7.1099   14.7206    7.1160 H       1  UNL1        0.0278
      8 H           5.5978   14.2951    6.3160 H       1  UNL1        0.0278
      9 H           6.7725   15.3183    5.4917 H       1  UNL1        0.0278
     10 C           8.7694   14.5726    3.8761 C.3     1  UNL1       -0.0395
     11 H           9.1209   15.2738    4.6369 H       1  UNL1        0.0278
     12 H           7.9598   15.0564    3.3274 H       1  UNL1        0.0278
     13 H           9.5943   14.3998    3.1882 H       1  UNL1        0.0278
     14 C          10.3022   11.7213    3.8175 C.3     1  UNL1       -0.0424
     15 H          11.1480   11.7823    4.5063 H       1  UNL1        0.0275
     16 H          10.4914   12.4007    2.9905 H       1  UNL1        0.0275
     17 H          10.2684   10.7073    3.4208 H       1  UNL1        0.0275
     18 C           9.0671    9.9489    6.0727 C.3     1  UNL1       -0.0510
     19 H           8.3166    9.3577    6.5951 H       1  UNL1        0.0242
     20 H           9.8916   10.1415    6.7638 H       1  UNL1        0.0242
     21 H           9.4534    9.3572    5.2439 H       1  UNL1        0.0242
     22 C           6.8308   11.6096    7.5527 C.3     1  UNL1       -0.0424
     23 H           6.0398   12.3048    7.8160 H       1  UNL1        0.0275
     24 H           7.5856   11.6325    8.3424 H       1  UNL1        0.0275
     25 H           6.4096   10.6051    7.5200 H       1  UNL1        0.0275
@<TRIPOS>BOND
     1    16    14    1
     2    13    10    1
     3    12    10    1
     4    17    14    1
     5    14    15    1
     6    14     3    1
     7    10     2    1
     8    10    11    1
     9     2     3    2
    10     2     1    1
    11     3     4    1
    12    21    18    1
    13     9     6    1
    14     4    18    1
    15     4     5    1
    16     1     6    1
    17     1     5    2
    18    18    19    1
    19    18    20    1
    20     6     8    1
    21     6     7    1
    22     5    22    1
    23    25    22    1
    24    22    23    1
    25    22    24    1
