@<TRIPOS>MOLECULE
1,3,5,7,9
 10 10 0 0 0
SMALL
GASTEIGER

@<TRIPOS>ATOM
      1 C          -2.1629    2.0094    5.9056 C.2     1  UNL1       -0.0837
      2 H          -2.1161    1.4121    5.0052 H       1  UNL1        0.0572
      3 C          -1.4709    3.2240    6.1206 C.3     1  UNL1       -0.0127
      4 H          -0.9046    3.7540    5.3655 H       1  UNL1        0.0352
      5 C          -1.9396    3.7893    7.3484 C.3     1  UNL1       -0.0235
      6 H          -1.9359    4.8546    7.5687 H       1  UNL1        0.0315
      7 C          -2.8831    2.8500    7.8974 C.3     1  UNL1       -0.0127
      8 H          -3.5720    3.0513    8.7086 H       1  UNL1        0.0352
      9 C          -3.0124    1.7800    6.9882 C.2     1  UNL1       -0.0837
     10 H          -3.6849    0.9412    7.1038 H       1  UNL1        0.0572
@<TRIPOS>BOND
     1     2     1    1
     2     4     3    1
     3     1     3    1
     4     1     9    2
     5     3     5    1
     6     9    10    1
     7     9     7    1
     8     5     6    1
     9     5     7    1
    10     7     8    1
