@<TRIPOS>MOLECULE
1,3,5,7,9
 10 10 0 0 0
SMALL
GASTEIGER

@<TRIPOS>ATOM
      1 C           3.7706    4.7695    5.8203 C.2     1  UNL1       -0.0763
      2 H           3.1254    5.1261    6.6110 H       1  UNL1        0.0578
      3 C           3.9977    3.4167    5.4844 C.2     1  UNL1       -0.0654
      4 H           3.6013    2.5574    6.0096 H       1  UNL1        0.0615
      5 C           5.0177    3.3716    4.5145 C.2     1  UNL1       -0.0654
      6 H           5.5076    2.4688    4.1726 H       1  UNL1        0.0615
      7 C           5.4285    4.6933    4.2466 C.2     1  UNL1       -0.0763
      8 H           6.2661    4.9843    3.6288 H       1  UNL1        0.0578
      9 C           4.6621    5.5583    5.0600 C.3     1  UNL1        0.0054
     10 H           4.8083    6.6266    5.1611 H       1  UNL1        0.0394
@<TRIPOS>BOND
     1     8     7    1
     2     6     5    1
     3     7     5    2
     4     7     9    1
     5     5     3    1
     6     9    10    1
     7     9     1    1
     8     3     1    2
     9     3     4    1
    10     1     2    1
