@<TRIPOS>MOLECULE
1,3,5,7,9
 10 10 0 0 0
SMALL
GASTEIGER

@<TRIPOS>ATOM
      1 C           3.1413    2.6295    1.8767 C.2     1  UNL1       -0.0763
      2 H           4.0341    2.1080    1.5565 H       1  UNL1        0.0578
      3 C           2.4844    3.6524    1.1565 C.2     1  UNL1       -0.0654
      4 H           2.8103    4.0779    0.2175 H       1  UNL1        0.0615
      5 C           1.2518    3.9081    1.7899 C.2     1  UNL1       -0.0654
      6 H           0.4783    4.5733    1.4284 H       1  UNL1        0.0615
      7 C           1.1406    3.0422    2.8995 C.2     1  UNL1       -0.0763
      8 H           0.2489    2.8965    3.4918 H       1  UNL1        0.0578
      9 C           2.3052    2.2452    2.9473 C.3     1  UNL1        0.0054
     10 H           2.4591    1.3876    3.5929 H       1  UNL1        0.0394
@<TRIPOS>BOND
     1     4     3    1
     2     3     5    1
     3     3     1    2
     4     6     5    1
     5     2     1    1
     6     5     7    2
     7     1     9    1
     8     7     9    1
     9     7     8    1
    10     9    10    1
