@<TRIPOS>MOLECULE
1,3,5,7,9
 10 10 0 0 0
SMALL
GASTEIGER

@<TRIPOS>ATOM
      1 C           2.9167    7.1379   13.3270 C.2     1  UNL1       -0.0837
      2 H           1.8577    6.9325   13.4200 H       1  UNL1        0.0572
      3 C           3.6083    7.4026   12.1256 C.2     1  UNL1       -0.0837
      4 H           3.1669    7.4480   11.1404 H       1  UNL1        0.0572
      5 C           4.9300    7.7646   12.4545 C.3     1  UNL1       -0.0127
      6 H           5.6711    8.1470   11.7638 H       1  UNL1        0.0352
      7 C           5.0543    7.7361   13.8590 C.3     1  UNL1       -0.0235
      8 H           5.9043    8.0983   14.4237 H       1  UNL1        0.0315
      9 C           3.8075    7.3555   14.3990 C.3     1  UNL1       -0.0127
     10 H           3.5429    7.3648   15.4470 H       1  UNL1        0.0352
@<TRIPOS>BOND
     1     4     3    1
     2     6     5    1
     3     3     5    1
     4     3     1    2
     5     5     7    1
     6     1     2    1
     7     1     9    1
     8     7     9    1
     9     7     8    1
    10     9    10    1
