@<TRIPOS>MOLECULE
1,3,5,7,9
 10 10 0 0 0
SMALL
GASTEIGER

@<TRIPOS>ATOM
      1 C          10.2539   -0.6388    6.9709 C.2     1  UNL1       -0.0837
      2 H           9.8319   -0.3655    7.9281 H       1  UNL1        0.0572
      3 C          11.2096    0.1102    6.2549 C.2     1  UNL1       -0.0837
      4 H          11.6257    1.0617    6.5598 H       1  UNL1        0.0572
      5 C          11.6365   -0.6631    5.1560 C.3     1  UNL1       -0.0127
      6 H          12.4534   -0.4123    4.4932 H       1  UNL1        0.0352
      7 C          10.9306   -1.8854    5.1817 C.3     1  UNL1       -0.0235
      8 H          11.1349   -2.7489    4.5577 H       1  UNL1        0.0315
      9 C          10.0741   -1.8699    6.3050 C.3     1  UNL1       -0.0127
     10 H           9.5145   -2.7191    6.6822 H       1  UNL1        0.0352
@<TRIPOS>BOND
     1     6     5    1
     2     8     7    1
     3     5     7    1
     4     5     3    1
     5     7     9    1
     6     3     4    1
     7     3     1    2
     8     9    10    1
     9     9     1    1
    10     1     2    1
