@<TRIPOS>MOLECULE
1,3,5,7,9
 10 10 0 0 0
SMALL
GASTEIGER

@<TRIPOS>ATOM
      1 C           2.4638   -1.7132    5.0781 C.2     1  UNL1       -0.0763
      2 H           1.7234   -1.0729    5.5398 H       1  UNL1        0.0578
      3 C           3.7364   -2.0320    5.6094 C.3     1  UNL1        0.0054
      4 H           4.1270   -1.6944    6.5631 H       1  UNL1        0.0394
      5 C           4.3085   -3.0313    4.7953 C.2     1  UNL1       -0.0763
      6 H           5.2195   -3.5799    5.0041 H       1  UNL1        0.0578
      7 C           3.3896   -3.3385    3.7744 C.2     1  UNL1       -0.0654
      8 H           3.4810   -4.1678    3.0840 H       1  UNL1        0.0615
      9 C           2.2551   -2.5237    3.9416 C.2     1  UNL1       -0.0654
     10 H           1.3369   -2.5843    3.3712 H       1  UNL1        0.0615
@<TRIPOS>BOND
     1     8     7    1
     2    10     9    1
     3     7     9    1
     4     7     5    2
     5     9     1    2
     6     5     6    1
     7     5     3    1
     8     1     2    1
     9     1     3    1
    10     3     4    1
