@<TRIPOS>MOLECULE
1,3,5,7,9
 10 10 0 0 0
SMALL
GASTEIGER

@<TRIPOS>ATOM
      1 C           6.6535   -0.6194    2.8526 C.2     1  UNL1       -0.0763
      2 H           7.2040   -1.1951    2.1175 H       1  UNL1        0.0578
      3 C           6.0550    0.6393    2.6416 C.2     1  UNL1       -0.0654
      4 H           6.0307    1.1860    1.7073 H       1  UNL1        0.0615
      5 C           5.6292    1.1347    3.8916 C.2     1  UNL1       -0.0654
      6 H           5.2333    2.1254    4.0763 H       1  UNL1        0.0615
      7 C           5.9668    0.1765    4.8751 C.2     1  UNL1       -0.0763
      8 H           5.9144    0.3253    5.9472 H       1  UNL1        0.0578
      9 C           6.5988   -0.9054    4.2295 C.3     1  UNL1        0.0054
     10 H           7.0916   -1.7360    4.7207 H       1  UNL1        0.0394
@<TRIPOS>BOND
     1     4     3    1
     2     2     1    1
     3     3     1    2
     4     3     5    1
     5     1     9    1
     6     5     6    1
     7     5     7    2
     8     9    10    1
     9     9     7    1
    10     7     8    1
