@<TRIPOS>MOLECULE
1,3,5,7,9
 10 10 0 0 0
SMALL
GASTEIGER

@<TRIPOS>ATOM
      1 C           8.1407   -0.6391    2.4751 C.2     1  UNL1       -0.0654
      2 H           8.5628   -0.3659    1.5178 H       1  UNL1        0.0615
      3 C           7.1850    0.1100    3.1909 C.2     1  UNL1       -0.0654
      4 H           6.7691    1.0615    2.8860 H       1  UNL1        0.0615
      5 C           6.7581   -0.6630    4.2900 C.2     1  UNL1       -0.0763
      6 H           5.9413   -0.4121    4.9528 H       1  UNL1        0.0578
      7 C           7.4639   -1.8853    4.2645 C.3     1  UNL1        0.0054
      8 H           7.2597   -2.7488    4.8886 H       1  UNL1        0.0394
      9 C           8.3205   -1.8701    3.1412 C.2     1  UNL1       -0.0763
     10 H           8.8801   -2.7193    2.7642 H       1  UNL1        0.0578
@<TRIPOS>BOND
     1     2     1    1
     2     1     9    2
     3     1     3    1
     4    10     9    1
     5     4     3    1
     6     9     7    1
     7     3     5    2
     8     7     5    1
     9     7     8    1
    10     5     6    1
