@<TRIPOS>MOLECULE
1,3,5,7,9
 10 10 0 0 0
SMALL
GASTEIGER

@<TRIPOS>ATOM
      1 C           6.2082    3.3146   13.0005 C.2     1  UNL1       -0.0654
      2 H           5.8509    2.2927   12.9887 H       1  UNL1        0.0615
      3 C           6.6453    4.0276   14.1373 C.2     1  UNL1       -0.0654
      4 H           6.6916    3.6407   15.1450 H       1  UNL1        0.0615
      5 C           7.1683    5.2620   13.7028 C.2     1  UNL1       -0.0763
      6 H           7.6955    5.9779   14.3209 H       1  UNL1        0.0578
      7 C           7.0667    5.3091   12.2970 C.3     1  UNL1        0.0054
      8 H           7.5079    6.0645   11.6587 H       1  UNL1        0.0394
      9 C           6.4796    4.1021   11.8618 C.2     1  UNL1       -0.0763
     10 H           6.3838    3.7793   10.8347 H       1  UNL1        0.0578
@<TRIPOS>BOND
     1    10     9    1
     2     8     7    1
     3     9     7    1
     4     9     1    2
     5     7     5    1
     6     2     1    1
     7     1     3    1
     8     5     3    2
     9     5     6    1
    10     3     4    1
