@<TRIPOS>MOLECULE
1,3,5,7,9
 10 10 0 0 0
SMALL
GASTEIGER

@<TRIPOS>ATOM
      1 C           6.3222   11.1616    2.6641 C.2     1  UNL1       -0.0763
      2 H           7.0844   10.4246    2.4620 H       1  UNL1        0.0578
      3 C           5.4173   11.1274    3.7386 C.3     1  UNL1        0.0054
      4 H           5.3347   10.3345    4.4658 H       1  UNL1        0.0394
      5 C           4.7419   12.3549    3.7776 C.2     1  UNL1       -0.0763
      6 H           4.1050   12.6990    4.5785 H       1  UNL1        0.0578
      7 C           5.2018   13.1498    2.7157 C.2     1  UNL1       -0.0654
      8 H           4.9661   14.1943    2.5684 H       1  UNL1        0.0615
      9 C           6.1876   12.4166    2.0201 C.2     1  UNL1       -0.0654
     10 H           6.8570   12.8150    1.2695 H       1  UNL1        0.0615
@<TRIPOS>BOND
     1    10     9    1
     2     9     1    2
     3     9     7    1
     4     2     1    1
     5     8     7    1
     6     1     3    1
     7     7     5    2
     8     3     5    1
     9     3     4    1
    10     5     6    1
