@<TRIPOS>MOLECULE
1,3,5,7,9
 10 10 0 0 0
SMALL
GASTEIGER

@<TRIPOS>ATOM
      1 C           6.3724    7.2017    1.9810 C.2     1  UNL1       -0.0763
      2 H           7.0699    7.5599    1.2309 H       1  UNL1        0.0578
      3 C           6.4310    5.9481    2.6354 C.3     1  UNL1        0.0054
      4 H           7.1707    5.1756    2.4699 H       1  UNL1        0.0394
      5 C           5.4805    5.9600    3.6782 C.2     1  UNL1       -0.0763
      6 H           5.3488    5.1827    4.4202 H       1  UNL1        0.0578
      7 C           4.8506    7.2195    3.6771 C.2     1  UNL1       -0.0654
      8 H           4.1927    7.6001    4.4482 H       1  UNL1        0.0615
      9 C           5.3934    7.9839    2.6282 C.2     1  UNL1       -0.0654
     10 H           5.1989    9.0354    2.4527 H       1  UNL1        0.0615
@<TRIPOS>BOND
     1     2     1    1
     2     1     9    2
     3     1     3    1
     4    10     9    1
     5     4     3    1
     6     9     7    1
     7     3     5    1
     8     7     5    2
     9     7     8    1
    10     5     6    1
