@<TRIPOS>MOLECULE
1,3,5,7,9
 10 10 0 0 0
SMALL
GASTEIGER

@<TRIPOS>ATOM
      1 C           3.9401    5.8972   -1.0769 C.2     1  UNL1       -0.0763
      2 H           4.2192    5.0315   -1.6630 H       1  UNL1        0.0578
      3 C           2.6548    6.1582   -0.5635 C.3     1  UNL1        0.0054
      4 H           1.7899    5.5191   -0.6865 H       1  UNL1        0.0394
      5 C           2.6645    7.4548   -0.0059 C.2     1  UNL1       -0.0763
      6 H           1.7964    8.0082    0.3348 H       1  UNL1        0.0578
      7 C           3.9558    7.9919   -0.1706 C.2     1  UNL1       -0.0654
      8 H           4.2428    9.0176    0.0298 H       1  UNL1        0.0615
      9 C           4.7495    7.0272   -0.8252 C.2     1  UNL1       -0.0654
     10 H           5.7487    7.1880   -1.2135 H       1  UNL1        0.0615
@<TRIPOS>BOND
     1     2     1    1
     2    10     9    1
     3     1     9    2
     4     1     3    1
     5     9     7    1
     6     4     3    1
     7     3     5    1
     8     7     5    2
     9     7     8    1
    10     5     6    1
