@<TRIPOS>MOLECULE
1,3,5,7,9
 10 10 0 0 0
SMALL
GASTEIGER

@<TRIPOS>ATOM
      1 C           2.5873   11.3522   -0.5516 C.2     1  UNL1       -0.0763
      2 H           1.7051   10.7459   -0.6880 H       1  UNL1        0.0578
      3 C           2.6311   12.6448    0.0036 C.3     1  UNL1        0.0054
      4 H           1.7776   13.2293    0.3182 H       1  UNL1        0.0394
      5 C           3.9409   13.1371   -0.1367 C.2     1  UNL1       -0.0763
      6 H           4.2551   14.1537    0.0527 H       1  UNL1        0.0578
      7 C           4.7124   12.1429   -0.7747 C.2     1  UNL1       -0.0654
      8 H           5.7158   12.2703   -1.1544 H       1  UNL1        0.0615
      9 C           3.8646   11.0472   -1.0429 C.2     1  UNL1       -0.0654
     10 H           4.1247   10.1703   -1.6147 H       1  UNL1        0.0615
@<TRIPOS>BOND
     1    10     9    1
     2     8     7    1
     3     9     7    1
     4     9     1    2
     5     7     5    2
     6     2     1    1
     7     1     3    1
     8     5     3    1
     9     5     6    1
    10     3     4    1
