@<TRIPOS>MOLECULE
1,3,5,7,9
 10 10 0 0 0
SMALL
GASTEIGER

@<TRIPOS>ATOM
      1 C           1.9523    4.9309    4.5201 C.3     1  UNL1        0.0054
      2 H           2.6332    5.7728    4.5973 H       1  UNL1        0.0394
      3 C           1.7364    3.9551    5.5213 C.2     1  UNL1       -0.0763
      4 H           2.2080    3.9304    6.4976 H       1  UNL1        0.0578
      5 C           0.9379    2.9329    4.9660 C.2     1  UNL1       -0.0654
      6 H           0.6650    2.0035    5.4514 H       1  UNL1        0.0615
      7 C           0.6460    3.2796    3.6281 C.2     1  UNL1       -0.0654
      8 H           0.1533    2.6380    2.9056 H       1  UNL1        0.0615
      9 C           1.2873    4.5067    3.3482 C.2     1  UNL1       -0.0763
     10 H           1.3717    4.9635    2.3680 H       1  UNL1        0.0578
@<TRIPOS>BOND
     1    10     9    1
     2     8     7    1
     3     9     7    2
     4     9     1    1
     5     7     5    1
     6     1     2    1
     7     1     3    1
     8     5     6    1
     9     5     3    2
    10     3     4    1
