@<TRIPOS>MOLECULE
1,3,5,7,9
 10 10 0 0 0
SMALL
GASTEIGER

@<TRIPOS>ATOM
      1 C          -1.3890    6.5608    3.3132 C.3     1  UNL1       -0.0235
      2 H          -1.5686    6.3110    2.2721 H       1  UNL1        0.0315
      3 C          -0.2402    7.2063    3.8202 C.3     1  UNL1       -0.0127
      4 H           0.6170    7.5245    3.2379 H       1  UNL1        0.0352
      5 C          -0.4710    7.5143    5.1770 C.2     1  UNL1       -0.0837
      6 H           0.1745    8.1112    5.8129 H       1  UNL1        0.0572
      7 C          -1.7838    7.0964    5.5005 C.2     1  UNL1       -0.0837
      8 H          -2.2963    7.2888    6.4351 H       1  UNL1        0.0572
      9 C          -2.3507    6.5066    4.3512 C.3     1  UNL1       -0.0127
     10 H          -3.3806    6.1844    4.2462 H       1  UNL1        0.0352
@<TRIPOS>BOND
     1     2     1    1
     2     4     3    1
     3     1     3    1
     4     1     9    1
     5     3     5    1
     6    10     9    1
     7     9     7    1
     8     5     7    2
     9     5     6    1
    10     7     8    1
