@<TRIPOS>MOLECULE
1,3,5,7,9
 10 10 0 0 0
SMALL
GASTEIGER

@<TRIPOS>ATOM
      1 C           7.1851    2.5297   11.9466 C.2     1  UNL1       -0.0763
      2 H           7.1853    1.4578   11.7923 H       1  UNL1        0.0578
      3 C           6.0415    3.3345   12.1365 C.3     1  UNL1        0.0054
      4 H           5.0195    2.9809   12.1707 H       1  UNL1        0.0394
      5 C           6.4788    4.6398   12.4591 C.2     1  UNL1       -0.0763
      6 H           5.8498    5.4522   12.8049 H       1  UNL1        0.0578
      7 C           8.3285    3.3349   12.1362 C.2     1  UNL1       -0.0654
      8 H           9.3507    2.9818   12.1700 H       1  UNL1        0.0615
      9 C           7.8908    4.6400   12.4589 C.2     1  UNL1       -0.0654
     10 H           8.5197    5.4526   12.8046 H       1  UNL1        0.0615
@<TRIPOS>BOND
     1     2     1    1
     2     1     7    2
     3     1     3    1
     4     7     8    1
     5     7     9    1
     6     3     4    1
     7     3     5    1
     8     9     5    2
     9     9    10    1
    10     5     6    1
