@<TRIPOS>MOLECULE
1,3,5,7,9
 10 10 0 0 0
SMALL
GASTEIGER

@<TRIPOS>ATOM
      1 C           7.1867    6.6974   10.1267 C.2     1  UNL1       -0.0763
      2 H           7.1895    7.3164   11.0170 H       1  UNL1        0.0578
      3 C           8.3290    6.3082    9.3908 C.2     1  UNL1       -0.0654
      4 H           9.3490    6.5958    9.6087 H       1  UNL1        0.0615
      5 C           7.8838    5.7106    8.1875 C.2     1  UNL1       -0.0654
      6 H           8.5164    5.4047    7.3644 H       1  UNL1        0.0615
      7 C           6.0402    6.3105    9.3962 C.3     1  UNL1        0.0054
      8 H           5.0219    6.6003    9.6190 H       1  UNL1        0.0394
      9 C           6.4784    5.7121    8.1908 C.2     1  UNL1       -0.0763
     10 H           5.8413    5.4075    7.3708 H       1  UNL1        0.0578
@<TRIPOS>BOND
     1     6     5    1
     2    10     9    1
     3     5     9    2
     4     5     3    1
     5     9     7    1
     6     3     4    1
     7     3     1    2
     8     7     8    1
     9     7     1    1
    10     1     2    1
