@<TRIPOS>MOLECULE
2,3,12,13,14
 31 31 0 0 0
SMALL
GASTEIGER

@<TRIPOS>ATOM
      1 SI         -3.7426    2.8446    2.4837 Si      1  UNL1        0.0000
      2 C          -1.2067    4.3820    2.6847 C.3     1  UNL1        0.0000
      3 C          -0.9259    2.2629    1.8519 C.3     1  UNL1        0.0000
      4 C          -1.1774    0.9096    1.2619 C.3     1  UNL1        0.0000
      5 H          -1.3696    1.0033    0.1901 H       1  UNL1        0.0000
      6 H          -2.0352    0.4273    1.7238 H       1  UNL1        0.0000
      7 H          -0.3051    0.2685    1.3972 H       1  UNL1        0.0000
      8 C          -1.9127    5.6852    2.9128 C.3     1  UNL1        0.0000
      9 H          -2.1656    6.1173    1.9407 H       1  UNL1        0.0000
     10 H          -1.2962    6.4115    3.4374 H       1  UNL1        0.0000
     11 H          -2.8369    5.5405    3.4647 H       1  UNL1        0.0000
     12 C           0.3025    2.9583    1.7081 C.2     1  UNL1        0.0000
     13 C          -1.8830    3.1480    2.4401 C.3     1  UNL1        0.0000
     14 C           0.1402    4.2596    2.2392 C.2     1  UNL1        0.0000
     15 C           1.4767    2.4559    0.9260 C.3     1  UNL1        0.0000
     16 H           1.1589    2.2263   -0.0930 H       1  UNL1        0.0000
     17 H           1.8809    1.5407    1.3606 H       1  UNL1        0.0000
     18 H           2.2680    3.2007    0.8800 H       1  UNL1        0.0000
     19 C          -4.5536    3.3247    4.1442 C.3     1  UNL1        0.0000
     20 H          -3.9289    3.0345    4.9833 H       1  UNL1        0.0000
     21 H          -5.5015    2.8072    4.2498 H       1  UNL1        0.0000
     22 H          -4.7649    4.3888    4.2127 H       1  UNL1        0.0000
     23 C           1.1048    5.3843    1.9973 C.3     1  UNL1        0.0000
     24 H           2.1049    5.1520    2.3592 H       1  UNL1        0.0000
     25 H           0.7698    6.3075    2.4605 H       1  UNL1        0.0000
     26 H           1.1758    5.5615    0.9212 H       1  UNL1        0.0000
     27 C          -4.5228    3.9137    1.1053 C.3     1  UNL1        0.0000
     28 H          -5.5815    3.6936    1.0230 H       1  UNL1        0.0000
     29 H          -4.0696    3.7115    0.1404 H       1  UNL1        0.0000
     30 H          -4.4265    4.9773    1.2966 H       1  UNL1        0.0000
     31 H          -4.0806    1.4451    2.1734 H       1  UNL1        0.0000
@<TRIPOS>BOND
     1    16    15    1
     2    29    27    1
     3     5     4    1
     4    18    15    1
     5    26    23    1
     6    15    17    1
     7    15    12    1
     8    28    27    1
     9    27    30    1
    10    27     1    1
    11     4     7    1
    12     4     6    1
    13     4     3    1
    14    12     3    1
    15    12    14    2
    16     3    13    1
    17     9     8    1
    18    23    14    1
    19    23    24    1
    20    23    25    1
    21    31     1    1
    22    14     2    1
    23    13     1    1
    24    13     2    1
    25     1    19    1
    26     2     8    1
    27     8    10    1
    28     8    11    1
    29    19    22    1
    30    19    21    1
    31    19    20    1
