@<TRIPOS>MOLECULE
2,3,12,13,14
 31 31 0 0 0
SMALL
GASTEIGER

@<TRIPOS>ATOM
      1 SI          2.8566    2.8446    5.6946 Si      1  UNL1        0.0000
      2 C           0.3207    4.3820    5.4935 C.2     1  UNL1        0.0000
      3 C           0.0399    2.2629    6.3264 C.2     1  UNL1        0.0000
      4 C           0.2913    0.9096    6.9164 C.3     1  UNL1        0.0000
      5 H           0.4837    1.0034    7.9881 H       1  UNL1        0.0000
      6 H           1.1491    0.4273    6.4544 H       1  UNL1        0.0000
      7 H          -0.5809    0.2686    6.7812 H       1  UNL1        0.0000
      8 C           1.0268    5.6852    5.2654 C.3     1  UNL1        0.0000
      9 H           1.2795    6.1173    6.2376 H       1  UNL1        0.0000
     10 H           0.4102    6.4115    4.7409 H       1  UNL1        0.0000
     11 H           1.9509    5.5405    4.7135 H       1  UNL1        0.0000
     12 C          -1.1885    2.9583    6.4702 C.2     1  UNL1        0.0000
     13 C           0.9970    3.1480    5.7381 C.3     1  UNL1        0.0000
     14 C          -1.0262    4.2596    5.9390 C.2     1  UNL1        0.0000
     15 C          -2.3627    2.4560    7.2523 C.3     1  UNL1        0.0000
     16 H          -2.0448    2.2262    8.2712 H       1  UNL1        0.0000
     17 H          -2.7671    1.5409    6.8175 H       1  UNL1        0.0000
     18 H          -3.1539    3.2008    7.2985 H       1  UNL1        0.0000
     19 C           3.6676    3.3247    4.0341 C.3     1  UNL1        0.0000
     20 H           3.0428    3.0345    3.1949 H       1  UNL1        0.0000
     21 H           4.6155    2.8071    3.9284 H       1  UNL1        0.0000
     22 H           3.8789    4.3887    3.9655 H       1  UNL1        0.0000
     23 C          -1.9908    5.3843    6.1810 C.3     1  UNL1        0.0000
     24 H          -2.9909    5.1521    5.8191 H       1  UNL1        0.0000
     25 H          -1.6558    6.3076    5.7177 H       1  UNL1        0.0000
     26 H          -2.0617    5.5616    7.2570 H       1  UNL1        0.0000
     27 C           3.6369    3.9137    7.0729 C.3     1  UNL1        0.0000
     28 H           4.6956    3.6936    7.1551 H       1  UNL1        0.0000
     29 H           3.1837    3.7115    8.0378 H       1  UNL1        0.0000
     30 H           3.5406    4.9773    6.8816 H       1  UNL1        0.0000
     31 H           3.1946    1.4451    6.0049 H       1  UNL1        0.0000
@<TRIPOS>BOND
     1    20    19    1
     2    21    19    1
     3    22    19    1
     4    19     1    1
     5    11     8    1
     6    10     8    1
     7     8     2    1
     8     8     9    1
     9     2    13    1
    10     2    14    2
    11     1    13    1
    12     1    31    1
    13     1    27    1
    14    25    23    1
    15    13     3    1
    16    24    23    1
    17    14    23    1
    18    14    12    1
    19    23    26    1
    20     3    12    2
    21     3     4    1
    22     6     4    1
    23    12    15    1
    24     7     4    1
    25    17    15    1
    26    30    27    1
    27     4     5    1
    28    27    28    1
    29    27    29    1
    30    15    18    1
    31    15    16    1
