@<TRIPOS>MOLECULE
1,6,11,12,17
 25 25 0 0 0
SMALL
GASTEIGER

@<TRIPOS>ATOM
      1 C          -1.1227   -4.9962    1.9211 C.2     1  UNL1       -0.0584
      2 C          -2.3567   -7.0400    3.0271 C.3     1  UNL1       -0.0510
      3 H          -2.5222   -7.9078    2.3843 H       1  UNL1        0.0242
      4 H          -3.2550   -6.4266    2.9967 H       1  UNL1        0.0242
      5 H          -2.2096   -7.4020    4.0463 H       1  UNL1        0.0242
      6 C          -1.1542   -6.2798    2.5423 C.3     1  UNL1        0.0231
      7 C           2.3441   -6.2269    1.1779 C.3     1  UNL1       -0.0395
      8 H           2.9036   -6.8309    1.8920 H       1  UNL1        0.0278
      9 H           2.8904   -5.2990    1.0173 H       1  UNL1        0.0278
     10 H           2.3001   -6.7680    0.2292 H       1  UNL1        0.0278
     11 C           0.1815   -4.8052    1.3812 C.2     1  UNL1       -0.0477
     12 C           0.1326   -6.8698    2.3870 C.2     1  UNL1       -0.0584
     13 C          -2.2851   -4.0721    1.6939 C.3     1  UNL1       -0.0424
     14 H          -2.0298   -3.0473    1.9688 H       1  UNL1        0.0275
     15 H          -3.1534   -4.3762    2.2752 H       1  UNL1        0.0275
     16 H          -2.5620   -4.0793    0.6375 H       1  UNL1        0.0275
     17 C           0.9567   -5.9514    1.6754 C.2     1  UNL1       -0.0477
     18 C           0.6421   -3.6334    0.5654 C.3     1  UNL1       -0.0395
     19 H           1.6321   -3.3023    0.8846 H       1  UNL1        0.0278
     20 H          -0.0463   -2.7966    0.6640 H       1  UNL1        0.0278
     21 H           0.7014   -3.9100   -0.4899 H       1  UNL1        0.0278
     22 C           0.4379   -8.3179    2.6282 C.3     1  UNL1       -0.0424
     23 H           0.0807   -8.9066    1.7783 H       1  UNL1        0.0275
     24 H          -0.0555   -8.6843    3.5262 H       1  UNL1        0.0275
     25 H           1.5082   -8.4877    2.7254 H       1  UNL1        0.0275
@<TRIPOS>BOND
     1    21    18    1
     2    10     7    1
     3    18    20    1
     4    18    19    1
     5    18    11    1
     6    16    13    1
     7     9     7    1
     8     7    17    1
     9     7     8    1
    10    11    17    1
    11    11     1    2
    12    17    12    2
    13    13     1    1
    14    13    14    1
    15    13    15    1
    16    23    22    1
    17     1     6    1
    18     3     2    1
    19    12     6    1
    20    12    22    1
    21     6     2    1
    22    22    25    1
    23    22    24    1
    24     4     2    1
    25     2     5    1
