@<TRIPOS>MOLECULE
1,2,3,4,5
 25 25 0 0 0
SMALL
GASTEIGER

@<TRIPOS>ATOM
      1 C           6.1372    3.6664   10.4466 C.2     1  UNL1       -0.0477
      2 C           7.1774    4.4033    9.8339 C.2     1  UNL1       -0.0477
      3 C           7.9381    5.0342   10.8575 C.2     1  UNL1       -0.0584
      4 C           7.3675    4.6783   12.1135 C.3     1  UNL1        0.0231
      5 C           6.2454    3.8338   11.8538 C.2     1  UNL1       -0.0584
      6 C           5.2578    2.6433    9.7880 C.3     1  UNL1       -0.0395
      7 H           5.0323    2.9023    8.7544 H       1  UNL1        0.0278
      8 H           4.3227    2.5194   10.3332 H       1  UNL1        0.0278
      9 H           5.7671    1.6751    9.7811 H       1  UNL1        0.0278
     10 C           7.5569    4.3741    8.3828 C.3     1  UNL1       -0.0395
     11 H           6.7246    4.0460    7.7617 H       1  UNL1        0.0278
     12 H           8.3858    3.6770    8.2325 H       1  UNL1        0.0278
     13 H           7.8807    5.3546    8.0341 H       1  UNL1        0.0278
     14 C           9.2293    5.7613   10.6148 C.3     1  UNL1       -0.0424
     15 H          10.0091    5.0451   10.3412 H       1  UNL1        0.0275
     16 H           9.5609    6.3022   11.5001 H       1  UNL1        0.0275
     17 H           9.1343    6.4749    9.7946 H       1  UNL1        0.0275
     18 C           7.9712    4.8931   13.4735 C.3     1  UNL1       -0.0510
     19 H           7.3136    5.4774   14.1213 H       1  UNL1        0.0242
     20 H           8.9288    5.4072   13.4001 H       1  UNL1        0.0242
     21 H           8.1486    3.9286   13.9556 H       1  UNL1        0.0242
     22 C           5.5254    2.9869   12.8618 C.3     1  UNL1       -0.0424
     23 H           5.9090    1.9631   12.8183 H       1  UNL1        0.0275
     24 H           4.4533    2.9509   12.6676 H       1  UNL1        0.0275
     25 H           5.6765    3.3618   13.8697 H       1  UNL1        0.0275
@<TRIPOS>BOND
     1    11    10    1
     2    13    10    1
     3    12    10    1
     4    10     2    1
     5     7     6    1
     6     9     6    1
     7     6     8    1
     8     6     1    1
     9    17    14    1
    10     2     1    1
    11     2     3    2
    12    15    14    1
    13     1     5    2
    14    14     3    1
    15    14    16    1
    16     3     4    1
    17     5     4    1
    18     5    22    1
    19     4    18    1
    20    24    22    1
    21    23    22    1
    22    22    25    1
    23    20    18    1
    24    18    21    1
    25    18    19    1
