@<TRIPOS>MOLECULE
1,2,3,4,5
 25 25 0 0 0
SMALL
GASTEIGER

@<TRIPOS>ATOM
      1 C          -1.5280   14.5624   13.6803 C.3     1  UNL1        0.0231
      2 C          -1.2831   13.2382   13.1848 C.2     1  UNL1       -0.0584
      3 C          -0.3393   12.6070   14.0447 C.2     1  UNL1       -0.0477
      4 C           0.1013   13.5777   14.9855 C.2     1  UNL1       -0.0477
      5 C          -0.6681   14.7751   14.7873 C.2     1  UNL1       -0.0584
      6 C          -2.6188   15.4765   13.2160 C.3     1  UNL1       -0.0510
      7 H          -3.5380   15.2676   13.7668 H       1  UNL1        0.0242
      8 H          -2.8191   15.3370   12.1567 H       1  UNL1        0.0242
      9 H          -2.3532   16.5180   13.3790 H       1  UNL1        0.0242
     10 C          -2.0916   12.5260   12.1451 C.3     1  UNL1       -0.0424
     11 H          -2.4125   13.2085   11.3617 H       1  UNL1        0.0275
     12 H          -2.9820   12.0839   12.5966 H       1  UNL1        0.0275
     13 H          -1.5052   11.7299   11.6942 H       1  UNL1        0.0275
     14 C          -0.0436   11.1424   14.0494 C.3     1  UNL1       -0.0395
     15 H           0.3277   10.8132   13.0830 H       1  UNL1        0.0278
     16 H          -0.9604   10.5919   14.2678 H       1  UNL1        0.0278
     17 H           0.6904   10.8942   14.8105 H       1  UNL1        0.0278
     18 C           0.9957   13.3184   16.1589 C.3     1  UNL1       -0.0395
     19 H           0.4133   12.9393   17.0011 H       1  UNL1        0.0278
     20 H           1.4932   14.2318   16.4753 H       1  UNL1        0.0278
     21 H           1.7593   12.5859   15.9110 H       1  UNL1        0.0278
     22 C          -0.6857   15.9578   15.7052 C.3     1  UNL1       -0.0424
     23 H           0.2999   16.1408   16.1260 H       1  UNL1        0.0275
     24 H          -1.3799   15.7802   16.5289 H       1  UNL1        0.0275
     25 H          -1.0032   16.8543   15.1789 H       1  UNL1        0.0275
@<TRIPOS>BOND
     1    11    10    1
     2    13    10    1
     3    10    12    1
     4    10     2    1
     5     8     6    1
     6    15    14    1
     7     2     1    1
     8     2     3    2
     9     6     9    1
    10     6     1    1
    11     6     7    1
    12     1     5    1
    13     3    14    1
    14     3     4    1
    15    14    16    1
    16    14    17    1
    17     5     4    2
    18     5    22    1
    19     4    18    1
    20    25    22    1
    21    22    23    1
    22    22    24    1
    23    21    18    1
    24    18    20    1
    25    18    19    1
