@<TRIPOS>MOLECULE
1,3,5,7,9
 10 10 0 0 0
SMALL
GASTEIGER

@<TRIPOS>ATOM
      1 C           9.8126    3.0275   10.2155 C.2     1  UNL1       -0.0763
      2 H           9.8936    2.4142    9.3269 H       1  UNL1        0.0578
      3 C           9.5224    2.5625   11.5090 C.3     1  UNL1        0.0054
      4 H           9.3985    1.5266   11.7989 H       1  UNL1        0.0394
      5 C           9.6431    3.6530   12.3972 C.2     1  UNL1       -0.0763
      6 H           9.6347    3.5773   13.4762 H       1  UNL1        0.0578
      7 C           9.9663    4.7974   11.6474 C.2     1  UNL1       -0.0654
      8 H          10.2343    5.7670   12.0485 H       1  UNL1        0.0615
      9 C          10.0420    4.4215   10.2886 C.2     1  UNL1       -0.0654
     10 H          10.3965    5.0509    9.4780 H       1  UNL1        0.0615
@<TRIPOS>BOND
     1     2     1    1
     2    10     9    1
     3     1     9    2
     4     1     3    1
     5     9     7    1
     6     3     4    1
     7     3     5    1
     8     7     8    1
     9     7     5    2
    10     5     6    1
