@<TRIPOS>MOLECULE
1,3,5,7,9
 10 10 0 0 0
SMALL
GASTEIGER

@<TRIPOS>ATOM
      1 C           5.6612    4.6133   11.6104 C.2     1  UNL1       -0.0763
      2 H           4.7764    4.1611   11.1855 H       1  UNL1        0.0578
      3 C           6.2549    5.8259   11.1898 C.2     1  UNL1       -0.0654
      4 H           5.8731    6.4859   10.4212 H       1  UNL1        0.0615
      5 C           7.2684    6.1544   12.1198 C.2     1  UNL1       -0.0654
      6 H           7.8211    7.0863   12.1389 H       1  UNL1        0.0615
      7 C           7.2980    5.1558   13.1013 C.2     1  UNL1       -0.0763
      8 H           7.8874    5.1806   14.0071 H       1  UNL1        0.0578
      9 C           6.3442    4.1705   12.7640 C.3     1  UNL1        0.0054
     10 H           6.0625    3.3220   13.3812 H       1  UNL1        0.0394
@<TRIPOS>BOND
     1     4     3    1
     2     2     1    1
     3     3     1    2
     4     3     5    1
     5     1     9    1
     6     5     6    1
     7     5     7    2
     8     9     7    1
     9     9    10    1
    10     7     8    1
