@<TRIPOS>MOLECULE
2,3,4,5,6
 34 34 0 0 0
SMALL
GASTEIGER

@<TRIPOS>ATOM
      1 SI          3.3312    2.2957    4.2175 Si      1  UNL1        0.0000
      2 C           2.6518    4.6082    5.9625 C.2     1  UNL1        0.0000
      3 C           3.3133    5.6553    6.6531 C.3     1  UNL1        0.0000
      4 C           4.6992    5.5855    6.3106 C.2     1  UNL1        0.0000
      5 C           4.8831    4.4758    5.4504 C.2     1  UNL1        0.0000
      6 C           3.6192    3.8575    5.2297 C.2     1  UNL1        0.0000
      7 C           1.1906    4.2557    6.0471 C.3     1  UNL1        0.0000
      8 H           0.7004    4.7922    6.8588 H       1  UNL1        0.0000
      9 H           1.0745    3.1896    6.2409 H       1  UNL1        0.0000
     10 H           0.6736    4.4860    5.1087 H       1  UNL1        0.0000
     11 C           2.7874    6.3925    7.8586 C.3     1  UNL1        0.0000
     12 H           1.7080    6.3000    7.9427 H       1  UNL1        0.0000
     13 H           3.0420    7.4495    7.8538 H       1  UNL1        0.0000
     14 H           3.2240    5.9539    8.7602 H       1  UNL1        0.0000
     15 C           5.8067    6.3825    6.9523 C.3     1  UNL1        0.0000
     16 H           6.5040    5.7147    7.4625 H       1  UNL1        0.0000
     17 H           5.4087    7.0675    7.6980 H       1  UNL1        0.0000
     18 H           6.3737    6.9596    6.2172 H       1  UNL1        0.0000
     19 C           6.2107    3.9168    5.0155 C.3     1  UNL1        0.0000
     20 H           7.0286    4.4719    5.4716 H       1  UNL1        0.0000
     21 H           6.3315    3.9493    3.9322 H       1  UNL1        0.0000
     22 H           6.2915    2.8757    5.3305 H       1  UNL1        0.0000
     23 C           3.6435    0.7719    5.3374 C.3     1  UNL1        0.0000
     24 H           4.6555    0.7595    5.7274 H       1  UNL1        0.0000
     25 H           3.4949   -0.1472    4.7812 H       1  UNL1        0.0000
     26 H           2.9690    0.7548    6.1870 H       1  UNL1        0.0000
     27 C           4.5131    2.2059    2.7112 C.3     1  UNL1        0.0000
     28 H           4.6153    3.1881    2.2532 H       1  UNL1        0.0000
     29 H           4.1167    1.5327    1.9570 H       1  UNL1        0.0000
     30 H           5.5015    1.8453    2.9764 H       1  UNL1        0.0000
     31 C           1.5559    2.1417    3.5126 C.3     1  UNL1        0.0000
     32 H           0.8188    1.8887    4.2674 H       1  UNL1        0.0000
     33 H           1.5221    1.3622    2.7571 H       1  UNL1        0.0000
     34 H           1.2535    3.0703    3.0368 H       1  UNL1        0.0000
@<TRIPOS>BOND
     1    29    27    1
     2    28    27    1
     3    27    30    1
     4    27     1    1
     5    33    31    1
     6    34    31    1
     7    31     1    1
     8    31    32    1
     9    21    19    1
    10     1     6    1
    11     1    23    1
    12    25    23    1
    13    19    22    1
    14    19     5    1
    15    19    20    1
    16    10     7    1
    17     6     5    1
    18     6     2    2
    19    23    24    1
    20    23    26    1
    21     5     4    2
    22     2     7    1
    23     2     3    1
    24     7     9    1
    25     7     8    1
    26    18    15    1
    27     4     3    1
    28     4    15    1
    29     3    11    1
    30    15    16    1
    31    15    17    1
    32    13    11    1
    33    11    12    1
    34    11    14    1
