@<TRIPOS>MOLECULE
2,3,4,5,6
 34 34 0 0 0
SMALL
GASTEIGER

@<TRIPOS>ATOM
      1 SI          6.4580    1.6269    2.6123 Si      1  UNL1        0.0000
      2 C           6.0877    4.5831    2.8829 C.2     1  UNL1        0.0000
      3 C           6.6640    5.6390    3.6138 C.3     1  UNL1        0.0000
      4 C           7.7467    5.1128    4.3808 C.2     1  UNL1        0.0000
      5 C           7.8365    3.7255    4.1167 C.2     1  UNL1        0.0000
      6 C           6.8076    3.3821    3.1686 C.2     1  UNL1        0.0000
      7 C           4.8518    4.6866    2.0381 C.3     1  UNL1        0.0000
      8 H           4.9424    4.0798    1.1412 H       1  UNL1        0.0000
      9 H           4.6781    5.7168    1.7350 H       1  UNL1        0.0000
     10 H           3.9788    4.3469    2.5995 H       1  UNL1        0.0000
     11 C           6.0471    6.9884    3.8553 C.3     1  UNL1        0.0000
     12 H           6.7934    7.7304    4.1295 H       1  UNL1        0.0000
     13 H           5.3334    6.9188    4.6812 H       1  UNL1        0.0000
     14 H           5.5072    7.3425    2.9823 H       1  UNL1        0.0000
     15 C           8.3932    5.8771    5.5049 C.3     1  UNL1        0.0000
     16 H           8.9166    6.7651    5.1456 H       1  UNL1        0.0000
     17 H           9.0914    5.2554    6.0605 H       1  UNL1        0.0000
     18 H           7.6243    6.2106    6.2060 H       1  UNL1        0.0000
     19 C           8.5796    2.7250    4.9604 C.3     1  UNL1        0.0000
     20 H           8.9001    1.8639    4.3778 H       1  UNL1        0.0000
     21 H           7.9202    2.3599    5.7524 H       1  UNL1        0.0000
     22 H           9.4483    3.1688    5.4409 H       1  UNL1        0.0000
     23 C           4.9780    1.3834    1.4331 C.3     1  UNL1        0.0000
     24 H           4.8738    0.3303    1.1900 H       1  UNL1        0.0000
     25 H           5.1003    1.9262    0.5041 H       1  UNL1        0.0000
     26 H           4.0489    1.7028    1.8915 H       1  UNL1        0.0000
     27 C           8.0727    1.0717    1.7311 C.3     1  UNL1        0.0000
     28 H           7.8965    0.2724    1.0190 H       1  UNL1        0.0000
     29 H           8.8052    0.6972    2.4403 H       1  UNL1        0.0000
     30 H           8.5032    1.9254    1.1896 H       1  UNL1        0.0000
     31 C           6.1035    0.4457    4.0856 C.3     1  UNL1        0.0000
     32 H           5.7281   -0.5063    3.7240 H       1  UNL1        0.0000
     33 H           5.3505    0.8614    4.7477 H       1  UNL1        0.0000
     34 H           6.9849    0.2398    4.6823 H       1  UNL1        0.0000
@<TRIPOS>BOND
     1    25    23    1
     2    28    27    1
     3     8     7    1
     4    30    27    1
     5    24    23    1
     6    23    26    1
     7    23     1    1
     8    27    29    1
     9    27     1    1
    10     9     7    1
    11     7    10    1
    12     7     2    1
    13     1     6    1
    14     1    31    1
    15     2     6    2
    16     2     3    1
    17    14    11    1
    18     6     5    1
    19     3    11    1
    20     3     4    1
    21    32    31    1
    22    11    12    1
    23    11    13    1
    24    31    34    1
    25    31    33    1
    26     5     4    2
    27     5    19    1
    28    20    19    1
    29     4    15    1
    30    19    22    1
    31    19    21    1
    32    16    15    1
    33    15    17    1
    34    15    18    1
