@<TRIPOS>MOLECULE
1,2,3,4,5
 25 25 0 0 0
SMALL
GASTEIGER

@<TRIPOS>ATOM
      1 C          -2.4752    2.9730   14.5553 C.2     1  UNL1       -0.0658
      2 C          -1.5567    1.8942   14.5191 C.2     1  UNL1       -0.0658
      3 C          -0.3052    2.4017   14.0859 C.3     1  UNL1        0.0052
      4 C          -0.4353    3.8230   13.8935 C.3     1  UNL1       -0.0053
      5 C          -1.7797    4.1661   14.1736 C.3     1  UNL1        0.0052
      6 C          -3.8255    2.9371   15.2021 C.3     1  UNL1       -0.0430
      7 H          -3.7163    3.0874   16.2797 H       1  UNL1        0.0275
      8 H          -4.3161    1.9789   15.0408 H       1  UNL1        0.0275
      9 H          -4.4706    3.7212   14.8109 H       1  UNL1        0.0275
     10 C          -1.8007    0.5197   15.0628 C.3     1  UNL1       -0.0430
     11 H          -2.8462    0.2385   14.9599 H       1  UNL1        0.0275
     12 H          -1.5428    0.4911   16.1255 H       1  UNL1        0.0275
     13 H          -1.1951   -0.2238   14.5471 H       1  UNL1        0.0275
     14 C           0.9790    1.6435   14.2379 C.3     1  UNL1       -0.0545
     15 H           1.7868    2.0795   13.6535 H       1  UNL1        0.0239
     16 H           0.8588    0.6032   13.9364 H       1  UNL1        0.0239
     17 H           1.2841    1.6555   15.2885 H       1  UNL1        0.0239
     18 C           0.6849    4.8207   13.8645 C.3     1  UNL1       -0.0574
     19 H           0.7591    5.3050   14.8427 H       1  UNL1        0.0236
     20 H           0.5172    5.6015   13.1227 H       1  UNL1        0.0236
     21 H           1.6417    4.3489   13.6557 H       1  UNL1        0.0236
     22 C          -2.3048    5.5526   14.3788 C.3     1  UNL1       -0.0545
     23 H          -1.7130    6.2824   13.8309 H       1  UNL1        0.0239
     24 H          -2.2633    5.8095   15.4413 H       1  UNL1        0.0239
     25 H          -3.3408    5.6339   14.0525 H       1  UNL1        0.0239
@<TRIPOS>BOND
     1    20    18    1
     2    15    14    1
     3    21    18    1
     4    23    22    1
     5    18     4    1
     6    18    19    1
     7     4     3    1
     8     4     5    1
     9    16    14    1
    10    25    22    1
    11     3    14    1
    12     3     2    1
    13     5    22    1
    14     5     1    1
    15    14    17    1
    16    22    24    1
    17     2     1    2
    18     2    10    1
    19    13    10    1
    20     1     6    1
    21     9     6    1
    22    11    10    1
    23     8     6    1
    24    10    12    1
    25     6     7    1
