@<TRIPOS>MOLECULE
2,4,6,8,10
 22 22 0 0 0
SMALL
GASTEIGER

@<TRIPOS>ATOM
      1 SI         -0.9052    3.0557    4.9247 Si      1  UNL1        0.0000
      2 C           0.0159    2.0581    2.2772 C.2     1  UNL1        0.0000
      3 H          -0.0222    1.0107    2.5580 H       1  UNL1        0.0000
      4 C           0.2473    2.5598    0.9802 C.2     1  UNL1        0.0000
      5 H           0.3783    1.9627    0.0878 H       1  UNL1        0.0000
      6 C           0.0792    3.9649    1.0179 C.2     1  UNL1        0.0000
      7 H           0.0713    4.6277    0.1620 H       1  UNL1        0.0000
      8 C          -0.2866    4.3198    2.3308 C.2     1  UNL1        0.0000
      9 H          -0.5797    5.3103    2.6590 H       1  UNL1        0.0000
     10 C          -0.3261    3.1475    3.1304 C.3     1  UNL1        0.0000
     11 C           0.1275    4.1522    6.0960 C.3     1  UNL1        0.0000
     12 H           0.1206    5.1909    5.7758 H       1  UNL1        0.0000
     13 H           1.1648    3.8294    6.1377 H       1  UNL1        0.0000
     14 H          -0.2712    4.1169    7.1057 H       1  UNL1        0.0000
     15 C          -0.9043    1.2295    5.4864 C.3     1  UNL1        0.0000
     16 H           0.0946    0.8062    5.4609 H       1  UNL1        0.0000
     17 H          -1.5484    0.6185    4.8609 H       1  UNL1        0.0000
     18 H          -1.2698    1.1493    6.5048 H       1  UNL1        0.0000
     19 C          -2.7088    3.6980    4.9356 C.3     1  UNL1        0.0000
     20 H          -2.7672    4.7370    4.6284 H       1  UNL1        0.0000
     21 H          -3.1304    3.6271    5.9321 H       1  UNL1        0.0000
     22 H          -3.3422    3.1225    4.2686 H       1  UNL1        0.0000
@<TRIPOS>BOND
     1     5     4    1
     2     7     6    1
     3     4     6    1
     4     4     2    2
     5     6     8    2
     6     2     3    1
     7     2    10    1
     8     8     9    1
     9     8    10    1
    10    10     1    1
    11    22    19    1
    12    20    19    1
    13    17    15    1
    14     1    19    1
    15     1    15    1
    16     1    11    1
    17    19    21    1
    18    16    15    1
    19    15    18    1
    20    12    11    1
    21    11    13    1
    22    11    14    1
