@<TRIPOS>MOLECULE
1,2,3,4,5
 25 25 0 0 0
SMALL
GASTEIGER

@<TRIPOS>ATOM
      1 C           3.7794    4.4603    1.2766 C.2     1  UNL1       -0.0584
      2 C           4.3948    3.6711    2.2947 C.3     1  UNL1        0.0231
      3 C           4.1447    2.3030    1.9916 C.2     1  UNL1       -0.0584
      4 C           3.3711    2.2438    0.8010 C.2     1  UNL1       -0.0477
      5 C           3.1583    3.5758    0.3478 C.2     1  UNL1       -0.0477
      6 C           3.8610    5.9527    1.1019 C.3     1  UNL1       -0.0424
      7 H           4.2740    6.4273    1.9893 H       1  UNL1        0.0275
      8 H           2.8720    6.3839    0.9219 H       1  UNL1        0.0275
      9 H           4.5016    6.2004    0.2523 H       1  UNL1        0.0275
     10 C           5.2030    4.1535    3.4683 C.3     1  UNL1       -0.0510
     11 H           5.1039    5.2302    3.5965 H       1  UNL1        0.0242
     12 H           6.2607    3.9198    3.3282 H       1  UNL1        0.0242
     13 H           4.8644    3.6700    4.3900 H       1  UNL1        0.0242
     14 C           4.7490    1.1097    2.6754 C.3     1  UNL1       -0.0424
     15 H           4.0305    0.2924    2.7512 H       1  UNL1        0.0275
     16 H           5.0861    1.3618    3.6785 H       1  UNL1        0.0275
     17 H           5.6101    0.7523    2.1046 H       1  UNL1        0.0275
     18 C           3.0499    0.9636    0.0788 C.3     1  UNL1       -0.0395
     19 H           2.4442    0.2955    0.6974 H       1  UNL1        0.0278
     20 H           3.9735    0.4358   -0.1667 H       1  UNL1        0.0278
     21 H           2.5217    1.1558   -0.8526 H       1  UNL1        0.0278
     22 C           2.6433    3.9904   -1.0036 C.3     1  UNL1       -0.0395
     23 H           1.8620    3.3260   -1.3692 H       1  UNL1        0.0278
     24 H           3.4611    3.9682   -1.7286 H       1  UNL1        0.0278
     25 H           2.2541    5.0074   -0.9811 H       1  UNL1        0.0278
@<TRIPOS>BOND
     1    24    22    1
     2    23    22    1
     3    22    25    1
     4    22     5    1
     5    21    18    1
     6    20    18    1
     7    18    19    1
     8    18     4    1
     9     9     6    1
    10     5     4    1
    11     5     1    2
    12     4     3    2
    13     8     6    1
    14     6     1    1
    15     6     7    1
    16     1     2    1
    17     3     2    1
    18     3    14    1
    19    17    14    1
    20     2    10    1
    21    14    15    1
    22    14    16    1
    23    12    10    1
    24    10    11    1
    25    10    13    1
