@<TRIPOS>MOLECULE
1,2,3,4,5
 25 25 0 0 0
SMALL
GASTEIGER

@<TRIPOS>ATOM
      1 C           2.9066   16.5553    4.3812 C.2     1  UNL1       -0.0584
      2 C           1.5446   16.4106    3.9913 C.3     1  UNL1        0.0231
      3 C           1.4826   15.3968    2.9836 C.2     1  UNL1       -0.0584
      4 C           2.8045   14.9145    2.7725 C.2     1  UNL1       -0.0477
      5 C           3.6811   15.6396    3.6245 C.2     1  UNL1       -0.0477
      6 C           3.4002   17.3976    5.5240 C.3     1  UNL1       -0.0424
      7 H           3.2438   16.8759    6.4709 H       1  UNL1        0.0275
      8 H           2.8670   18.3455    5.5695 H       1  UNL1        0.0275
      9 H           4.4638   17.6043    5.4243 H       1  UNL1        0.0275
     10 C           0.3956   17.1944    4.5654 C.3     1  UNL1       -0.0510
     11 H           0.2378   16.9362    5.6143 H       1  UNL1        0.0242
     12 H          -0.5227   16.9892    4.0198 H       1  UNL1        0.0242
     13 H           0.6003   18.2670    4.5050 H       1  UNL1        0.0242
     14 C           0.2184   14.8205    2.4032 C.3     1  UNL1       -0.0424
     15 H          -0.2452   14.1305    3.1115 H       1  UNL1        0.0275
     16 H           0.4224   14.2712    1.4860 H       1  UNL1        0.0275
     17 H          -0.5015   15.6055    2.1750 H       1  UNL1        0.0275
     18 C           3.1668   13.6717    2.0054 C.3     1  UNL1       -0.0395
     19 H           3.1744   12.8099    2.6765 H       1  UNL1        0.0278
     20 H           4.1541   13.7462    1.5530 H       1  UNL1        0.0278
     21 H           2.4453   13.4674    1.2169 H       1  UNL1        0.0278
     22 C           5.1318   15.3355    3.8853 C.3     1  UNL1       -0.0395
     23 H           5.2499   14.9044    4.8810 H       1  UNL1        0.0278
     24 H           5.7476   16.2351    3.8400 H       1  UNL1        0.0278
     25 H           5.5174   14.6161    3.1672 H       1  UNL1        0.0278
@<TRIPOS>BOND
     1    21    18    1
     2    16    14    1
     3    20    18    1
     4    18    19    1
     5    18     4    1
     6    17    14    1
     7    14     3    1
     8    14    15    1
     9     4     3    2
    10     4     5    1
    11     3     2    1
    12    25    22    1
    13     5    22    1
    14     5     1    2
    15    24    22    1
    16    22    23    1
    17     2     1    1
    18     2    10    1
    19    12    10    1
    20     1     6    1
    21    13    10    1
    22    10    11    1
    23     9     6    1
    24     6     8    1
    25     6     7    1
