@<TRIPOS>MOLECULE
2,4,6,8,10
 22 22 0 0 0
SMALL
GASTEIGER

@<TRIPOS>ATOM
      1 SI          2.8318   20.3744    0.2018 Si      1  UNL1        0.0000
      2 C           2.7250   17.4698   -0.3227 C.2     1  UNL1        0.0000
      3 H           1.8802   17.5422   -0.9937 H       1  UNL1        0.0000
      4 C           3.4272   16.2926   -0.0077 C.2     1  UNL1        0.0000
      5 H           3.2480   15.3185   -0.4391 H       1  UNL1        0.0000
      6 C           4.5381   16.6493    0.7899 C.2     1  UNL1        0.0000
      7 H           5.3559   15.9963    1.0579 H       1  UNL1        0.0000
      8 C           4.5040   18.0448    0.9876 C.2     1  UNL1        0.0000
      9 H           5.2765   18.6389    1.4584 H       1  UNL1        0.0000
     10 C           3.3799   18.5730    0.2852 C.3     1  UNL1        0.0000
     11 C           2.7991   20.8911   -1.6379 C.3     1  UNL1        0.0000
     12 H           2.0905   20.3019   -2.2097 H       1  UNL1        0.0000
     13 H           3.7727   20.7748   -2.1016 H       1  UNL1        0.0000
     14 H           2.5120   21.9323   -1.7325 H       1  UNL1        0.0000
     15 C           1.0913   20.6078    0.9474 C.3     1  UNL1        0.0000
     16 H           0.3440   20.0559    0.3844 H       1  UNL1        0.0000
     17 H           0.7957   21.6530    0.9520 H       1  UNL1        0.0000
     18 H           1.0600   20.2444    1.9718 H       1  UNL1        0.0000
     19 C           4.1078   21.4396    1.1433 C.3     1  UNL1        0.0000
     20 H           3.8385   22.4895    1.0975 H       1  UNL1        0.0000
     21 H           5.1036   21.3398    0.7226 H       1  UNL1        0.0000
     22 H           4.1517   21.1550    2.1896 H       1  UNL1        0.0000
@<TRIPOS>BOND
     1    12    11    1
     2    13    11    1
     3    14    11    1
     4    11     1    1
     5     3     2    1
     6     5     4    1
     7     2     4    2
     8     2    10    1
     9     4     6    1
    10     1    10    1
    11     1    15    1
    12     1    19    1
    13    10     8    1
    14    16    15    1
    15    21    19    1
    16     6     8    2
    17     6     7    1
    18    15    17    1
    19    15    18    1
    20     8     9    1
    21    20    19    1
    22    19    22    1
