@<TRIPOS>MOLECULE
2,3,5,7,9
 22 22 0 0 0
SMALL
GASTEIGER

@<TRIPOS>ATOM
      1 SI          4.7213    9.7935    5.5245 Si      1  UNL1        0.0000
      2 C           3.6514   10.3657    4.0777 C.2     1  UNL1        0.0000
      3 C           3.6220    9.8103    2.7696 C.2     1  UNL1        0.0000
      4 H           4.1305    8.9013    2.4744 H       1  UNL1        0.0000
      5 C           2.9183   10.6633    1.9163 C.2     1  UNL1        0.0000
      6 H           2.7794   10.5274    0.8518 H       1  UNL1        0.0000
      7 C           2.4962   11.7740    2.6632 C.2     1  UNL1        0.0000
      8 H           2.0059   12.6570    2.2730 H       1  UNL1        0.0000
      9 C           2.9272   11.5979    3.9988 C.3     1  UNL1        0.0000
     10 H           2.9312   12.3696    4.7607 H       1  UNL1        0.0000
     11 C           4.8965    7.8913    5.4711 C.3     1  UNL1        0.0000
     12 H           3.9671    7.4146    5.1668 H       1  UNL1        0.0000
     13 H           5.1731    7.4907    6.4416 H       1  UNL1        0.0000
     14 H           5.6652    7.5891    4.7652 H       1  UNL1        0.0000
     15 C           3.8924   10.3819    7.1458 C.3     1  UNL1        0.0000
     16 H           4.0672   11.4409    7.3132 H       1  UNL1        0.0000
     17 H           4.2862    9.8515    8.0069 H       1  UNL1        0.0000
     18 H           2.8154   10.2245    7.1196 H       1  UNL1        0.0000
     19 C           6.4474   10.6027    5.3625 C.3     1  UNL1        0.0000
     20 H           6.9407   10.3134    4.4395 H       1  UNL1        0.0000
     21 H           7.0858   10.3000    6.1856 H       1  UNL1        0.0000
     22 H           6.3848   11.6866    5.3752 H       1  UNL1        0.0000
@<TRIPOS>BOND
     1     6     5    1
     2     5     7    2
     3     5     3    1
     4     8     7    1
     5     4     3    1
     6     7     9    1
     7     3     2    2
     8     9     2    1
     9     9    10    1
    10     2     1    1
    11    20    19    1
    12    14    11    1
    13    12    11    1
    14    19    22    1
    15    19     1    1
    16    19    21    1
    17    11     1    1
    18    11    13    1
    19     1    15    1
    20    18    15    1
    21    15    16    1
    22    15    17    1
