@<TRIPOS>MOLECULE
3,4,6,7,8
 54 57 0 0 0
SMALL
GASTEIGER

@<TRIPOS>ATOM
      1 SI          0.1188    4.1407   -6.3760 Si      1  UNL1        0.0000
      2 SI          1.3718   -0.8053   -3.2988 Si      1  UNL1        0.0000
      3 C           0.3803    2.8734   -5.0325 C.3     1  UNL1        0.0000
      4 C           0.8626    1.5317   -5.1213 C.3     1  UNL1        0.0000
      5 H           1.2259    1.0728   -6.0360 H       1  UNL1        0.0000
      6 C           0.9639    0.9434   -3.8191 C.3     1  UNL1        0.0000
      7 C           0.5997    1.9793   -2.8862 C.ar    1  UNL1        0.0000
      8 C           0.2633    3.1654   -3.6310 C.ar    1  UNL1        0.0000
      9 C          -0.0071    4.3606   -2.9515 C.ar    1  UNL1        0.0000
     10 H          -0.1853    5.2729   -3.5058 H       1  UNL1        0.0000
     11 C           0.0124    4.3710   -1.5716 C.ar    1  UNL1        0.0000
     12 H          -0.1820    5.2914   -1.0397 H       1  UNL1        0.0000
     13 C           0.3091    3.2138   -0.8466 C.ar    1  UNL1        0.0000
     14 H           0.3289    3.2593    0.2331 H       1  UNL1        0.0000
     15 C           0.6109    2.0272   -1.4867 C.ar    1  UNL1        0.0000
     16 H           0.8934    1.1566   -0.9105 H       1  UNL1        0.0000
     17 C           0.3686    3.4445   -8.1393 C.3     1  UNL1        0.0000
     18 H          -0.5243    2.9506   -8.5069 H       1  UNL1        0.0000
     19 H           0.6043    4.2500   -8.8270 H       1  UNL1        0.0000
     20 H           1.1875    2.7336   -8.1796 H       1  UNL1        0.0000
     21 C          -1.6722    4.8258   -6.1810 C.3     1  UNL1        0.0000
     22 H          -2.1249    5.0322   -7.1462 H       1  UNL1        0.0000
     23 H          -2.3055    4.1057   -5.6562 H       1  UNL1        0.0000
     24 H          -1.6824    5.7564   -5.6205 H       1  UNL1        0.0000
     25 C           1.3219    5.6011   -6.1574 C.ar    1  UNL1        0.0000
     26 C           2.4049    5.5319   -5.2864 C.ar    1  UNL1        0.0000
     27 H           2.5658    4.6288   -4.7157 H       1  UNL1        0.0000
     28 C           3.2711    6.5998   -5.1355 C.ar    1  UNL1        0.0000
     29 H           4.1052    6.5259   -4.4523 H       1  UNL1        0.0000
     30 C           3.0698    7.7634   -5.8580 C.ar    1  UNL1        0.0000
     31 H           3.7448    8.5993   -5.7424 H       1  UNL1        0.0000
     32 C           1.9973    7.8515   -6.7298 C.ar    1  UNL1        0.0000
     33 H           1.8343    8.7577   -7.2961 H       1  UNL1        0.0000
     34 C           1.1356    6.7799   -6.8738 C.ar    1  UNL1        0.0000
     35 H           0.2991    6.8569   -7.5540 H       1  UNL1        0.0000
     36 C           3.0186   -0.9426   -2.3242 C.3     1  UNL1        0.0000
     37 H           3.8729   -0.7648   -2.9701 H       1  UNL1        0.0000
     38 H           3.1361   -1.9323   -1.8930 H       1  UNL1        0.0000
     39 H           3.0664   -0.2198   -1.5156 H       1  UNL1        0.0000
     40 C          -0.0643   -1.3186   -2.1169 C.3     1  UNL1        0.0000
     41 H          -0.2918   -2.3779   -2.1720 H       1  UNL1        0.0000
     42 H          -0.9804   -0.7615   -2.3525 H       1  UNL1        0.0000
     43 H           0.2016   -1.1163   -1.0834 H       1  UNL1        0.0000
     44 C           1.5489   -1.9560   -4.8034 C.ar    1  UNL1        0.0000
     45 C           0.9340   -3.2012   -4.8749 C.ar    1  UNL1        0.0000
     46 H           0.3220   -3.5440   -4.0538 H       1  UNL1        0.0000
     47 C           1.0950   -4.0225   -5.9765 C.ar    1  UNL1        0.0000
     48 H           0.6008   -4.9829   -6.0107 H       1  UNL1        0.0000
     49 C           1.8884   -3.6145   -7.0348 C.ar    1  UNL1        0.0000
     50 H           2.0126   -4.2508   -7.8989 H       1  UNL1        0.0000
     51 C           2.5300   -2.3887   -6.9734 C.ar    1  UNL1        0.0000
     52 H           3.1626   -2.0690   -7.7895 H       1  UNL1        0.0000
     53 C           2.3618   -1.5749   -5.8679 C.ar    1  UNL1        0.0000
     54 H           2.8794   -0.6275   -5.8239 H       1  UNL1        0.0000
@<TRIPOS>BOND
     1    19    17    1
     2    18    17    1
     3    20    17    1
     4    17     1    1
     5    50    49    1
     6    52    51    1
     7    35    34    1
     8    33    32    1
     9    22    21    1
    10    49    51   ar
    11    49    47   ar
    12    51    53   ar
    13    34    32   ar
    14    34    25   ar
    15    32    30   ar
    16     1    21    1
    17     1    25    1
    18     1     3    1
    19    21    23    1
    20    21    24    1
    21    25    26   ar
    22     5     4    1
    23    48    47    1
    24    47    45   ar
    25    53    54    1
    26    53    44   ar
    27    30    31    1
    28    30    28   ar
    29    26    28   ar
    30    26    27    1
    31    28    29    1
    32     4     3    1
    33     4     6    1
    34     3     8    1
    35    45    44   ar
    36    45    46    1
    37    44     2    1
    38     6     2    1
    39     6     7    1
    40     8     9   ar
    41     8     7   ar
    42    10     9    1
    43     2    36    1
    44     2    40    1
    45    37    36    1
    46     9    11   ar
    47     7    15   ar
    48    42    40    1
    49    36    38    1
    50    36    39    1
    51    41    40    1
    52    40    43    1
    53    11    12    1
    54    11    13   ar
    55    15    16    1
    56    15    13   ar
    57    13    14    1
