@<TRIPOS>MOLECULE
2,3,5,6,7
 40 41 0 0 0
SMALL
GASTEIGER

@<TRIPOS>ATOM
      1 SI          3.9557    4.3231   13.6064 Si      1  UNL1        0.0000
      2 C           3.0117    2.8794   12.8861 C.3     1  UNL1        0.0000
      3 C           3.2719    2.1988   11.6522 C.3     1  UNL1        0.0000
      4 H           4.0851    2.4698   10.9872 H       1  UNL1        0.0000
      5 C           2.4565    1.0364   11.5247 C.3     1  UNL1        0.0000
      6 C           1.6949    0.9443   12.7481 C.ar    1  UNL1        0.0000
      7 C           2.0629    2.0663   13.5869 C.ar    1  UNL1        0.0000
      8 C           1.5673    2.1558   14.8948 C.ar    1  UNL1        0.0000
      9 H           1.8976    2.9589   15.5407 H       1  UNL1        0.0000
     10 C           0.6998    1.1930   15.3623 C.ar    1  UNL1        0.0000
     11 H           0.3258    1.2470   16.3751 H       1  UNL1        0.0000
     12 C           0.3123    0.1257   14.5466 C.ar    1  UNL1        0.0000
     13 H          -0.3649   -0.6197   14.9397 H       1  UNL1        0.0000
     14 C           0.7995   -0.0103   13.2632 C.ar    1  UNL1        0.0000
     15 H           0.5041   -0.8755   12.6840 H       1  UNL1        0.0000
     16 C           2.6980   -0.1111   10.5538 C.3     1  UNL1        0.0000
     17 C           1.3937   -0.5634    9.8818 C.3     1  UNL1        0.0000
     18 H           0.9989    0.2405    9.2614 H       1  UNL1        0.0000
     19 H           0.6400   -0.8447   10.6127 H       1  UNL1        0.0000
     20 H           1.5823   -1.4266    9.2452 H       1  UNL1        0.0000
     21 C           3.6781    0.2997    9.4480 C.3     1  UNL1        0.0000
     22 H           3.3103    1.1724    8.9117 H       1  UNL1        0.0000
     23 H           3.7924   -0.5169    8.7376 H       1  UNL1        0.0000
     24 H           4.6590    0.5233    9.8604 H       1  UNL1        0.0000
     25 C           3.3163   -1.2858   11.3307 C.3     1  UNL1        0.0000
     26 H           3.5434   -2.1086   10.6556 H       1  UNL1        0.0000
     27 H           2.6397   -1.6458   12.1001 H       1  UNL1        0.0000
     28 H           4.2379   -0.9696   11.8142 H       1  UNL1        0.0000
     29 C           5.0209    3.7978   15.1085 C.3     1  UNL1        0.0000
     30 H           5.8403    3.1541   14.8040 H       1  UNL1        0.0000
     31 H           4.4368    3.2511   15.8416 H       1  UNL1        0.0000
     32 H           5.4490    4.6627   15.6056 H       1  UNL1        0.0000
     33 C           2.6959    5.6559   14.1771 C.3     1  UNL1        0.0000
     34 H           3.1570    6.6372   14.2310 H       1  UNL1        0.0000
     35 H           2.2978    5.4372   15.1634 H       1  UNL1        0.0000
     36 H           1.8568    5.7153   13.4837 H       1  UNL1        0.0000
     37 C           5.1298    5.0893   12.3082 C.3     1  UNL1        0.0000
     38 H           4.5827    5.5548   11.4953 H       1  UNL1        0.0000
     39 H           5.7952    4.3460   11.8813 H       1  UNL1        0.0000
     40 H           5.7491    5.8540   12.7654 H       1  UNL1        0.0000
@<TRIPOS>BOND
     1    23    21    1
     2    22    21    1
     3    20    17    1
     4    18    17    1
     5    21    24    1
     6    21    16    1
     7    17    16    1
     8    17    19    1
     9    16    25    1
    10    16     5    1
    11    26    25    1
    12     4     3    1
    13    25    28    1
    14    25    27    1
    15    38    37    1
    16     5     3    1
    17     5     6    1
    18     3     2    1
    19    39    37    1
    20    37    40    1
    21    37     1    1
    22    15    14    1
    23     6    14   ar
    24     6     7   ar
    25     2     7    1
    26     2     1    1
    27    14    12   ar
    28    36    33    1
    29     7     8   ar
    30     1    33    1
    31     1    29    1
    32    33    34    1
    33    33    35    1
    34    12    13    1
    35    12    10   ar
    36    30    29    1
    37     8    10   ar
    38     8     9    1
    39    29    32    1
    40    29    31    1
    41    10    11    1
