@<TRIPOS>MOLECULE
1,2,3,4,5
 10 10 0 0 0
SMALL
GASTEIGER

@<TRIPOS>ATOM
      1 C           3.0560   -1.5606    1.6384 C.2     1  UNL1       -0.0763
      2 C           2.9359   -2.4747    2.7063 C.3     1  UNL1        0.0054
      3 C           3.9240   -2.1612    3.6621 C.2     1  UNL1       -0.0763
      4 C           4.6720   -1.0659    3.1737 C.2     1  UNL1       -0.0654
      5 C           4.1353   -0.6945    1.9281 C.2     1  UNL1       -0.0654
      6 H           2.5081   -1.5917    0.7027 H       1  UNL1        0.0578
      7 H           2.3052   -3.3556    2.7174 H       1  UNL1        0.0394
      8 H           4.1725   -2.7568    4.5313 H       1  UNL1        0.0578
      9 H           5.5723   -0.6627    3.6218 H       1  UNL1        0.0615
     10 H           4.5382    0.0549    1.2576 H       1  UNL1        0.0615
@<TRIPOS>BOND
     1     6     1    1
     2    10     5    1
     3     1     5    2
     4     1     2    1
     5     5     4    1
     6     2     7    1
     7     2     3    1
     8     4     9    1
     9     4     3    2
    10     3     8    1
