@<TRIPOS>MOLECULE
1,2,3,4,5
 10 10 0 0 0
SMALL
GASTEIGER

@<TRIPOS>ATOM
      1 C           0.0785   -1.3992    3.3243 C.2     1  UNL1       -0.0763
      2 C           0.6089   -1.7324    4.5931 C.3     1  UNL1        0.0054
      3 C           0.5853   -0.5683    5.3932 C.2     1  UNL1       -0.0763
      4 C           0.0553    0.4851    4.6138 C.2     1  UNL1       -0.0654
      5 C          -0.2756   -0.0374    3.3476 C.2     1  UNL1       -0.0654
      6 H          -0.1540   -2.0942    2.5248 H       1  UNL1        0.0578
      7 H           0.8349   -2.7302    4.9486 H       1  UNL1        0.0394
      8 H           0.7838   -0.5371    6.4553 H       1  UNL1        0.0578
      9 H          -0.1866    1.4818    4.9634 H       1  UNL1        0.0615
     10 H          -0.7912    0.4963    2.5596 H       1  UNL1        0.0615
@<TRIPOS>BOND
     1     6     1    1
     2    10     5    1
     3     1     5    2
     4     1     2    1
     5     5     4    1
     6     2     7    1
     7     2     3    1
     8     4     9    1
     9     4     3    2
    10     3     8    1
