@<TRIPOS>MOLECULE
1,2,3,4,5
 10 10 0 0 0
SMALL
GASTEIGER

@<TRIPOS>ATOM
      1 C          -2.6706    8.3554   11.7770 C.3     1  UNL1        0.0054
      2 C          -2.0518    7.1200   12.0907 C.2     1  UNL1       -0.0763
      3 C          -2.7123    6.1053   11.3683 C.2     1  UNL1       -0.0654
      4 C          -3.7592    6.7054   10.6262 C.2     1  UNL1       -0.0654
      5 C          -3.7441    8.0901   10.8917 C.2     1  UNL1       -0.0763
      6 H          -2.4708    9.2977   12.2580 H       1  UNL1        0.0394
      7 H          -1.2744    6.9733   12.8218 H       1  UNL1        0.0578
      8 H          -2.5271    5.0472   11.4517 H       1  UNL1        0.0615
      9 H          -4.5038    6.1801   10.0515 H       1  UNL1        0.0615
     10 H          -4.4738    8.8071   10.5543 H       1  UNL1        0.0578
@<TRIPOS>BOND
     1     9     4    1
     2    10     5    1
     3     4     5    2
     4     4     3    1
     5     5     1    1
     6     3     8    1
     7     3     2    2
     8     1     2    1
     9     1     6    1
    10     2     7    1
