@<TRIPOS>MOLECULE
1,2,3,4,5
 25 25 0 0 0
SMALL
GASTEIGER

@<TRIPOS>ATOM
      1 C           6.2684    9.9979    3.9324 C.2     1  UNL1       -0.0477
      2 C           6.2165    9.3187    5.1806 C.2     1  UNL1       -0.0477
      3 C           4.8716    9.3447    5.6452 C.2     1  UNL1       -0.0584
      4 C           4.0820   10.0038    4.6533 C.3     1  UNL1        0.0231
      5 C           4.9393   10.3996    3.5901 C.2     1  UNL1       -0.0584
      6 C           7.4615    9.9984    3.0310 C.3     1  UNL1       -0.0395
      7 H           7.6090    9.0054    2.6008 H       1  UNL1        0.0278
      8 H           8.3602   10.2621    3.5837 H       1  UNL1        0.0278
      9 H           7.3365   10.7063    2.2186 H       1  UNL1        0.0278
     10 C           7.3507    8.5265    5.7473 C.3     1  UNL1       -0.0395
     11 H           7.5171    7.6383    5.1341 H       1  UNL1        0.0278
     12 H           7.1364    8.2000    6.7604 H       1  UNL1        0.0278
     13 H           8.2700    9.1069    5.7551 H       1  UNL1        0.0278
     14 C           4.3407    8.6539    6.8616 C.3     1  UNL1       -0.0424
     15 H           3.4987    9.2033    7.2752 H       1  UNL1        0.0275
     16 H           5.1074    8.5817    7.6284 H       1  UNL1        0.0275
     17 H           4.0024    7.6453    6.6154 H       1  UNL1        0.0275
     18 C           2.5916   10.1334    4.6707 C.3     1  UNL1       -0.0510
     19 H           2.2774   11.0208    4.1273 H       1  UNL1        0.0242
     20 H           2.2245   10.2134    5.6906 H       1  UNL1        0.0242
     21 H           2.1265    9.2617    4.2062 H       1  UNL1        0.0242
     22 C           4.4969   10.9237    2.2620 C.3     1  UNL1       -0.0424
     23 H           4.2923   10.0940    1.5818 H       1  UNL1        0.0275
     24 H           5.2622   11.5519    1.8162 H       1  UNL1        0.0275
     25 H           3.5887   11.5114    2.3613 H       1  UNL1        0.0275
@<TRIPOS>BOND
     1    23    22    1
     2    24    22    1
     3     9     6    1
     4    22    25    1
     5    22     5    1
     6     7     6    1
     7     6     8    1
     8     6     1    1
     9     5     1    2
    10     5     4    1
    11     1     2    1
    12    19    18    1
    13    21    18    1
    14     4    18    1
    15     4     3    1
    16    18    20    1
    17    11    10    1
    18     2     3    2
    19     2    10    1
    20     3    14    1
    21    10    13    1
    22    10    12    1
    23    17    14    1
    24    14    15    1
    25    14    16    1
