@<TRIPOS>MOLECULE
1,2,3,4,5
 25 25 0 0 0
SMALL
GASTEIGER

@<TRIPOS>ATOM
      1 C           0.3663   -0.7478    3.8914 C.2     1  UNL1       -0.0584
      2 C           0.0593   -1.1841    5.2111 C.3     1  UNL1        0.0231
      3 C           0.7332   -0.3193    6.1331 C.2     1  UNL1       -0.0584
      4 C           1.4089    0.6712    5.3891 C.2     1  UNL1       -0.0477
      5 C           1.1847    0.4163    3.9925 C.2     1  UNL1       -0.0477
      6 C           0.0239   -1.5263    2.6521 C.3     1  UNL1       -0.0424
      7 C          -0.6263   -2.4792    5.5347 C.3     1  UNL1       -0.0510
      8 C           0.9504   -0.5891    7.5935 C.3     1  UNL1       -0.0424
      9 C           2.4379    1.6199    5.9323 C.3     1  UNL1       -0.0395
     10 C           2.0127    1.0319    2.9010 C.3     1  UNL1       -0.0395
     11 H           0.5230   -2.4977    2.6772 H       1  UNL1        0.0275
     12 H          -1.0501   -1.7009    2.5806 H       1  UNL1        0.0275
     13 H           0.3419   -1.0020    1.7543 H       1  UNL1        0.0275
     14 H           0.0789   -3.3102    5.4490 H       1  UNL1        0.0242
     15 H          -1.0249   -2.4788    6.5474 H       1  UNL1        0.0242
     16 H          -1.4492   -2.6615    4.8452 H       1  UNL1        0.0242
     17 H           1.9097   -1.0960    7.7274 H       1  UNL1        0.0275
     18 H           0.9769    0.3308    8.1767 H       1  UNL1        0.0275
     19 H           0.1770   -1.2358    8.0043 H       1  UNL1        0.0275
     20 H           3.4112    1.1232    5.9816 H       1  UNL1        0.0278
     21 H           2.1808    1.9522    6.9377 H       1  UNL1        0.0278
     22 H           2.5447    2.4972    5.2959 H       1  UNL1        0.0278
     23 H           3.0714    0.8557    3.1066 H       1  UNL1        0.0278
     24 H           1.8569    2.1071    2.8260 H       1  UNL1        0.0278
     25 H           1.7770    0.5900    1.9368 H       1  UNL1        0.0278
@<TRIPOS>BOND
     1    13     6    1
     2    25    10    1
     3    12     6    1
     4     6    11    1
     5     6     1    1
     6    24    10    1
     7    10    23    1
     8    10     5    1
     9     1     5    2
    10     1     2    1
    11     5     4    1
    12    16     7    1
    13     2     7    1
    14     2     3    1
    15    22     9    1
    16     4     9    1
    17     4     3    2
    18    14     7    1
    19     7    15    1
    20     9    20    1
    21     9    21    1
    22     3     8    1
    23     8    17    1
    24     8    19    1
    25     8    18    1
