@<TRIPOS>MOLECULE
1,3,5,7,9
 10 10 0 0 0
SMALL
GASTEIGER

@<TRIPOS>ATOM
      1 C           2.8009    1.5947   -0.2581 C.2     1  UNL1       -0.0654
      2 H           2.4309    2.1429   -1.1092 H       1  UNL1        0.0615
      3 C           2.0304    0.7724    0.5922 C.2     1  UNL1       -0.0654
      4 H           0.9656    0.6310    0.5430 H       1  UNL1        0.0615
      5 C           2.9167    0.1198    1.4763 C.2     1  UNL1       -0.0763
      6 H           2.6503   -0.6532    2.1787 H       1  UNL1        0.0578
      7 C           4.2447    0.4658    1.1069 C.3     1  UNL1        0.0054
      8 H           5.1437    0.0320    1.5127 H       1  UNL1        0.0394
      9 C           4.1733    1.3748    0.0383 C.2     1  UNL1       -0.0763
     10 H           5.0077    1.7630   -0.5222 H       1  UNL1        0.0578
@<TRIPOS>BOND
     1     2     1    1
     2    10     9    1
     3     1     9    2
     4     1     3    1
     5     9     7    1
     6     4     3    1
     7     3     5    2
     8     7     5    1
     9     7     8    1
    10     5     6    1
