@<TRIPOS>MOLECULE
1,2,3,4,5
 25 25 0 0 0
SMALL
GASTEIGER

@<TRIPOS>ATOM
      1 C           7.2431    5.8433   10.3152 C.2     1  UNL1       -0.0477
      2 C           6.7919    7.1600   10.5948 C.2     1  UNL1       -0.0584
      3 C           7.4434    7.6030   11.7907 C.3     1  UNL1        0.0231
      4 C           8.2724    6.5479   12.2528 C.2     1  UNL1       -0.0584
      5 C           8.1701    5.4631   11.3358 C.2     1  UNL1       -0.0477
      6 C           6.6608    4.9267    9.2760 C.3     1  UNL1       -0.0395
      7 H           7.3541    4.1268    9.0152 H       1  UNL1        0.0278
      8 H           6.4119    5.4655    8.3635 H       1  UNL1        0.0278
      9 H           5.7465    4.4637    9.6578 H       1  UNL1        0.0278
     10 C           5.6437    7.8772    9.9425 C.3     1  UNL1       -0.0424
     11 H           4.7637    7.8385   10.5910 H       1  UNL1        0.0275
     12 H           5.3807    7.4204    8.9910 H       1  UNL1        0.0275
     13 H           5.8792    8.9270    9.7639 H       1  UNL1        0.0275
     14 C           7.0858    8.8504   12.5442 C.3     1  UNL1       -0.0510
     15 H           6.1956    8.6813   13.1575 H       1  UNL1        0.0242
     16 H           6.8737    9.6724   11.8612 H       1  UNL1        0.0242
     17 H           7.8963    9.1591   13.2025 H       1  UNL1        0.0242
     18 C           9.0025    6.4968   13.5620 C.3     1  UNL1       -0.0424
     19 H           9.2743    7.4953   13.9005 H       1  UNL1        0.0275
     20 H           9.9153    5.9064   13.4804 H       1  UNL1        0.0275
     21 H           8.3709    6.0390   14.3290 H       1  UNL1        0.0275
     22 C           8.7233    4.0881   11.5873 C.3     1  UNL1       -0.0395
     23 H           9.7980    4.1178   11.7803 H       1  UNL1        0.0278
     24 H           8.5508    3.4286   10.7379 H       1  UNL1        0.0278
     25 H           8.2394    3.6411   12.4603 H       1  UNL1        0.0278
@<TRIPOS>BOND
     1     8     6    1
     2    12    10    1
     3     7     6    1
     4     6     9    1
     5     6     1    1
     6    13    10    1
     7    10    11    1
     8    10     2    1
     9     1     2    2
    10     1     5    1
    11     2     3    1
    12    24    22    1
    13     5    22    1
    14     5     4    2
    15    22    23    1
    16    22    25    1
    17     3     4    1
    18     3    14    1
    19    16    14    1
    20     4    18    1
    21    14    15    1
    22    14    17    1
    23    20    18    1
    24    18    19    1
    25    18    21    1
