@<TRIPOS>MOLECULE
1,2,3,4,5
 28 28 0 0 0
SMALL
GASTEIGER

@<TRIPOS>ATOM
      1 C           9.8304   12.7231    8.5127 C.2     1  UNL1       -0.0475
      2 C           8.6850   12.2940    7.7762 C.2     1  UNL1       -0.0477
      3 C           7.7034   13.3255    7.8527 C.2     1  UNL1       -0.0584
      4 C           8.2522   14.4040    8.6273 C.3     1  UNL1        0.0234
      5 C           9.5788   14.0261    9.0194 C.2     1  UNL1       -0.0556
      6 C          11.1442   11.9971    8.5441 C.3     1  UNL1       -0.0395
      7 H          11.6702   12.1338    7.5960 H       1  UNL1        0.0278
      8 H          11.0016   10.9272    8.6983 H       1  UNL1        0.0278
      9 H          11.7837   12.3720    9.3417 H       1  UNL1        0.0278
     10 C           8.6454   11.1331    6.8274 C.3     1  UNL1       -0.0395
     11 H           7.6424   10.7197    6.7433 H       1  UNL1        0.0278
     12 H           9.3154   10.3373    7.1442 H       1  UNL1        0.0278
     13 H           8.9599   11.4638    5.8342 H       1  UNL1        0.0278
     14 C           6.4329   13.3887    7.0548 C.3     1  UNL1       -0.0424
     15 H           6.6233   13.8530    6.0842 H       1  UNL1        0.0275
     16 H           5.6762   13.9787    7.5701 H       1  UNL1        0.0275
     17 H           6.0289   12.3929    6.8804 H       1  UNL1        0.0275
     18 C           7.6516   15.7771    8.7372 C.3     1  UNL1       -0.0510
     19 H           7.8527   16.3522    7.8300 H       1  UNL1        0.0242
     20 H           8.0670   16.3201    9.5841 H       1  UNL1        0.0242
     21 H           6.5714   15.7210    8.8692 H       1  UNL1        0.0242
     22 C          10.5905   14.9411    9.6485 C.3     1  UNL1       -0.0332
     23 H          11.3268   14.3652   10.2156 H       1  UNL1        0.0308
     24 H          10.1001   15.6249   10.3463 H       1  UNL1        0.0308
     25 C          11.3179   15.7545    8.5739 C.3     1  UNL1       -0.0615
     26 H          11.8300   15.0919    7.8794 H       1  UNL1        0.0233
     27 H          12.0526   16.4155    9.0284 H       1  UNL1        0.0233
     28 H          10.6099   16.3587    8.0117 H       1  UNL1        0.0233
@<TRIPOS>BOND
     1    13    10    1
     2    15    14    1
     3    11    10    1
     4    10    12    1
     5    10     2    1
     6    17    14    1
     7    14    16    1
     8    14     3    1
     9     7     6    1
    10     2     3    2
    11     2     1    1
    12    19    18    1
    13     3     4    1
    14    26    25    1
    15    28    25    1
    16     1     6    1
    17     1     5    2
    18     6     8    1
    19     6     9    1
    20    25    27    1
    21    25    22    1
    22     4    18    1
    23     4     5    1
    24    18    21    1
    25    18    20    1
    26     5    22    1
    27    22    23    1
    28    22    24    1
