@<TRIPOS>MOLECULE
1,3,5,7,9
 10 10 0 0 0
SMALL
GASTEIGER

@<TRIPOS>ATOM
      1 C           3.5224    5.5614    4.7345 C.2     1  UNL1       -0.0837
      2 H           4.4276    5.2032    4.2658 H       1  UNL1        0.0572
      3 C           2.3896    6.0671    4.0428 C.3     1  UNL1       -0.0127
      4 H           2.3048    6.1547    2.9691 H       1  UNL1        0.0352
      5 C           1.4965    6.5940    4.9865 C.3     1  UNL1       -0.0235
      6 H           0.6029    7.1641    4.7745 H       1  UNL1        0.0315
      7 C           2.0488    6.3741    6.2840 C.3     1  UNL1       -0.0127
      8 H           1.6827    6.8122    7.2047 H       1  UNL1        0.0352
      9 C           3.3318    5.7735    6.1066 C.2     1  UNL1       -0.0837
     10 H           4.0630    5.6162    6.8869 H       1  UNL1        0.0572
@<TRIPOS>BOND
     1     4     3    1
     2     3     1    1
     3     3     5    1
     4     2     1    1
     5     1     9    2
     6     6     5    1
     7     5     7    1
     8     9     7    1
     9     9    10    1
    10     7     8    1
