@<TRIPOS>MOLECULE
1,3,5,7,9
 10 10 0 0 0
SMALL
GASTEIGER

@<TRIPOS>ATOM
      1 C           2.0271    4.8810   14.4656 C.2     1  UNL1       -0.0654
      2 H           1.1088    4.6798   13.9273 H       1  UNL1        0.0615
      3 C           3.0986    3.9739   14.6427 C.2     1  UNL1       -0.0654
      4 H           3.1057    2.9371   14.3276 H       1  UNL1        0.0615
      5 C           4.0361    4.5736   15.5421 C.2     1  UNL1       -0.0763
      6 H           4.8854    4.0728   15.9901 H       1  UNL1        0.0578
      7 C           3.5533    5.8481   15.8848 C.3     1  UNL1        0.0054
      8 H           3.9721    6.5082   16.6351 H       1  UNL1        0.0394
      9 C           2.3156    6.0573   15.2008 C.2     1  UNL1       -0.0763
     10 H           1.6267    6.8714   15.3899 H       1  UNL1        0.0578
@<TRIPOS>BOND
     1     2     1    1
     2     4     3    1
     3     1     3    1
     4     1     9    2
     5     3     5    2
     6     9    10    1
     7     9     7    1
     8     5     7    1
     9     5     6    1
    10     7     8    1
