@<TRIPOS>MOLECULE
1,2,3,4,5
 25 25 0 0 0
SMALL
GASTEIGER

@<TRIPOS>ATOM
      1 C           3.9778   11.1524   18.7201 C.2     1  UNL1       -0.0477
      2 C           2.9367   10.9257   19.6646 C.2     1  UNL1       -0.0584
      3 C           1.8496   10.2985   18.9751 C.3     1  UNL1        0.0231
      4 C           2.2621   10.0897   17.6151 C.2     1  UNL1       -0.0584
      5 C           3.5647   10.6202   17.4603 C.2     1  UNL1       -0.0477
      6 C           5.3844   11.5481   19.0664 C.3     1  UNL1       -0.0395
      7 H           5.9675   10.6559   19.3102 H       1  UNL1        0.0278
      8 H           5.4093   12.2130   19.9277 H       1  UNL1        0.0278
      9 H           5.8786   12.0547   18.2383 H       1  UNL1        0.0278
     10 C           3.0438   11.0752   21.1542 C.3     1  UNL1       -0.0424
     11 H           2.0711   11.2829   21.5982 H       1  UNL1        0.0275
     12 H           3.7278   11.8778   21.4257 H       1  UNL1        0.0275
     13 H           3.4224   10.1485   21.5940 H       1  UNL1        0.0275
     14 C           0.6423    9.6756   19.6167 C.3     1  UNL1       -0.0510
     15 H           0.8803    8.6713   19.9768 H       1  UNL1        0.0242
     16 H          -0.1766    9.5980   18.9035 H       1  UNL1        0.0242
     17 H           0.2995   10.2692   20.4630 H       1  UNL1        0.0242
     18 C           1.5037    9.2657   16.6162 C.3     1  UNL1       -0.0424
     19 H           1.5145    8.2164   16.9206 H       1  UNL1        0.0275
     20 H           1.9530    9.3329   15.6276 H       1  UNL1        0.0275
     21 H           0.4636    9.5841   16.5451 H       1  UNL1        0.0275
     22 C           4.4480   10.4333   16.2627 C.3     1  UNL1       -0.0395
     23 H           5.2949   11.1169   16.2896 H       1  UNL1        0.0278
     24 H           3.9076   10.5968   15.3316 H       1  UNL1        0.0278
     25 H           4.8444    9.4142   16.2491 H       1  UNL1        0.0278
@<TRIPOS>BOND
     1    24    22    1
     2    20    18    1
     3    25    22    1
     4    22    23    1
     5    22     5    1
     6    21    18    1
     7    18    19    1
     8    18     4    1
     9     5     4    2
    10     5     1    1
    11     4     3    1
    12     9     6    1
    13     1     6    1
    14     1     2    2
    15    16    14    1
    16     3    14    1
    17     3     2    1
    18     6     7    1
    19     6     8    1
    20    14    15    1
    21    14    17    1
    22     2    10    1
    23    10    12    1
    24    10    13    1
    25    10    11    1
