@<TRIPOS>MOLECULE
2,3,5,7,9
 22 22 0 0 0
SMALL
GASTEIGER

@<TRIPOS>ATOM
      1 SI         -0.7234    2.3698    1.4510 Si      1  UNL1        0.0000
      2 C           0.7138    3.0435    0.4273 C.2     1  UNL1        0.0000
      3 C           0.6852    4.2797   -0.2720 C.2     1  UNL1        0.0000
      4 H          -0.0608    5.0406   -0.1357 H       1  UNL1        0.0000
      5 C           1.7048    4.2998   -1.2435 C.3     1  UNL1        0.0000
      6 H           1.8586    5.0623   -1.9872 H       1  UNL1        0.0000
      7 C           2.3549    3.0359   -1.1992 C.2     1  UNL1        0.0000
      8 H           3.1005    2.6882   -1.8926 H       1  UNL1        0.0000
      9 C           1.7475    2.2762   -0.1871 C.2     1  UNL1        0.0000
     10 H           1.9490    1.2417    0.0213 H       1  UNL1        0.0000
     11 C          -1.3475    3.6989    2.6672 C.3     1  UNL1        0.0000
     12 H          -0.8149    3.6754    3.6128 H       1  UNL1        0.0000
     13 H          -2.3959    3.5320    2.8909 H       1  UNL1        0.0000
     14 H          -1.2630    4.6998    2.2557 H       1  UNL1        0.0000
     15 C          -2.0682    1.9550    0.1688 C.3     1  UNL1        0.0000
     16 H          -2.3901    2.8382   -0.3752 H       1  UNL1        0.0000
     17 H          -2.9430    1.5309    0.6519 H       1  UNL1        0.0000
     18 H          -1.7155    1.2325   -0.5613 H       1  UNL1        0.0000
     19 C          -0.2177    0.8056    2.4108 C.3     1  UNL1        0.0000
     20 H           0.1994    0.0482    1.7546 H       1  UNL1        0.0000
     21 H          -1.0926    0.3695    2.8823 H       1  UNL1        0.0000
     22 H           0.5034    1.0048    3.1979 H       1  UNL1        0.0000
@<TRIPOS>BOND
     1     6     5    1
     2     8     7    1
     3     5     7    1
     4     5     3    1
     5     7     9    2
     6    18    15    1
     7    16    15    1
     8     3     4    1
     9     3     2    2
    10     9    10    1
    11     9     2    1
    12    15    17    1
    13    15     1    1
    14     2     1    1
    15     1    19    1
    16     1    11    1
    17    20    19    1
    18    14    11    1
    19    19    21    1
    20    19    22    1
    21    11    13    1
    22    11    12    1
