@<TRIPOS>MOLECULE
1,3,5,7,9
 10 10 0 0 0
SMALL
GASTEIGER

@<TRIPOS>ATOM
      1 C          10.5726    1.6101   11.2188 C.2     1  UNL1       -0.0763
      2 H          10.3246    1.1667   12.1744 H       1  UNL1        0.0578
      3 C          11.0867    2.9089   11.0250 C.3     1  UNL1        0.0054
      4 H          11.2757    3.6426   11.7995 H       1  UNL1        0.0394
      5 C          11.4477    3.0384    9.6671 C.2     1  UNL1       -0.0763
      6 H          12.0299    3.8538    9.2556 H       1  UNL1        0.0578
      7 C          11.1509    1.8144    9.0159 C.2     1  UNL1       -0.0654
      8 H          11.4295    1.5424    8.0048 H       1  UNL1        0.0615
      9 C          10.6317    0.9293    9.9837 C.2     1  UNL1       -0.0654
     10 H          10.4443   -0.1261    9.8332 H       1  UNL1        0.0615
@<TRIPOS>BOND
     1     8     7    1
     2     7     5    2
     3     7     9    1
     4     6     5    1
     5     5     3    1
     6    10     9    1
     7     9     1    2
     8     3     1    1
     9     3     4    1
    10     1     2    1
