@<TRIPOS>MOLECULE
14,15,17,19,21
 22 22 0 0 0
SMALL
GASTEIGER

@<TRIPOS>ATOM
      1 SI          5.6182   14.7582    7.8001 Si      1  UNL1        0.0000
      2 C           6.2206   16.4659    8.3946 C.3     1  UNL1        0.0000
      3 H           7.2729   16.6321    8.1855 H       1  UNL1        0.0000
      4 H           6.0791   16.5617    9.4659 H       1  UNL1        0.0000
      5 H           5.6562   17.2653    7.9245 H       1  UNL1        0.0000
      6 C           6.5206   13.3507    8.7287 C.3     1  UNL1        0.0000
      7 H           7.5673   13.2792    8.4380 H       1  UNL1        0.0000
      8 H           6.0524   12.3886    8.5396 H       1  UNL1        0.0000
      9 H           6.4833   13.5124    9.8013 H       1  UNL1        0.0000
     10 C           3.7308   14.5841    7.9805 C.3     1  UNL1        0.0000
     11 H           3.3729   13.6205    7.6304 H       1  UNL1        0.0000
     12 H           3.2037   15.3521    7.4224 H       1  UNL1        0.0000
     13 H           3.4416   14.6799    9.0218 H       1  UNL1        0.0000
     14 C           6.0381   14.5864    5.9573 C.2     1  UNL1        0.0000
     15 C           5.7185   13.4860    5.1322 C.3     1  UNL1        0.0000
     16 H           5.2054   12.5923    5.4645 H       1  UNL1        0.0000
     17 C           5.9684   13.8214    3.7837 C.2     1  UNL1        0.0000
     18 H           5.7018   13.2287    2.9186 H       1  UNL1        0.0000
     19 C           6.4518   15.1377    3.7473 C.2     1  UNL1        0.0000
     20 H           6.6199   15.7324    2.8578 H       1  UNL1        0.0000
     21 C           6.5253   15.6101    5.0873 C.2     1  UNL1        0.0000
     22 H           6.6817   16.6447    5.3725 H       1  UNL1        0.0000
@<TRIPOS>BOND
     1    20    19    1
     2    18    17    1
     3    19    17    2
     4    19    21    1
     5    17    15    1
     6    21    22    1
     7    21    14    2
     8    15    16    1
     9    15    14    1
    10    14     1    1
    11    12    10    1
    12    11    10    1
    13     1    10    1
    14     1     2    1
    15     1     6    1
    16     5     2    1
    17    10    13    1
    18     3     2    1
    19     2     4    1
    20     7     6    1
    21     8     6    1
    22     6     9    1
