@<TRIPOS>MOLECULE
2,3,5,7,9
 22 22 0 0 0
SMALL
GASTEIGER

@<TRIPOS>ATOM
      1 SI          2.5199    1.7705   11.0137 Si      1  UNL1        0.0000
      2 C           3.5757    2.4294    9.6071 C.3     1  UNL1        0.0000
      3 C           3.1102    3.0391    8.3994 C.3     1  UNL1        0.0000
      4 H           2.0699    3.0788    8.0962 H       1  UNL1        0.0000
      5 C           4.2079    3.1981    7.5236 C.3     1  UNL1        0.0000
      6 H           4.1446    3.4764    6.4789 H       1  UNL1        0.0000
      7 C           5.3491    2.6484    8.1500 C.2     1  UNL1        0.0000
      8 H           6.3248    2.5299    7.6970 H       1  UNL1        0.0000
      9 C           4.9698    2.2074    9.4240 C.2     1  UNL1        0.0000
     10 H           5.6063    1.6849   10.1277 H       1  UNL1        0.0000
     11 C           3.1394    2.4693   12.6804 C.3     1  UNL1        0.0000
     12 H           4.0797    2.0089   12.9673 H       1  UNL1        0.0000
     13 H           2.4288    2.2925   13.4819 H       1  UNL1        0.0000
     14 H           3.3125    3.5400   12.6030 H       1  UNL1        0.0000
     15 C           2.6109   -0.1419   11.0385 C.3     1  UNL1        0.0000
     16 H           2.2191   -0.5748   10.1232 H       1  UNL1        0.0000
     17 H           2.0353   -0.5436   11.8661 H       1  UNL1        0.0000
     18 H           3.6342   -0.4854   11.1511 H       1  UNL1        0.0000
     19 C           0.6962    2.2850   10.7463 C.3     1  UNL1        0.0000
     20 H           0.5854    3.3652   10.7419 H       1  UNL1        0.0000
     21 H           0.0667    1.8951   11.5398 H       1  UNL1        0.0000
     22 H           0.3060    1.9038    9.8071 H       1  UNL1        0.0000
@<TRIPOS>BOND
     1     6     5    1
     2     5     7    1
     3     5     3    1
     4     8     7    1
     5     4     3    1
     6     7     9    2
     7     3     2    1
     8     9     2    1
     9     9    10    1
    10     2     1    1
    11    22    19    1
    12    16    15    1
    13    20    19    1
    14    19     1    1
    15    19    21    1
    16     1    15    1
    17     1    11    1
    18    15    18    1
    19    15    17    1
    20    14    11    1
    21    11    12    1
    22    11    13    1
