@<TRIPOS>MOLECULE
14,15,17,19,21
 22 22 0 0 0
SMALL
GASTEIGER

@<TRIPOS>ATOM
      1 SI          9.8120   11.9617    2.0718 Si      1  UNL1        0.0000
      2 C          11.5852   12.6608    2.0601 C.3     1  UNL1        0.0000
      3 H          11.6544   13.6326    2.5392 H       1  UNL1        0.0000
      4 H          11.9387   12.7710    1.0405 H       1  UNL1        0.0000
      5 H          12.2728   11.9904    2.5663 H       1  UNL1        0.0000
      6 C           8.6251   13.0745    1.0665 C.3     1  UNL1        0.0000
      7 H           7.6677   12.5864    0.9057 H       1  UNL1        0.0000
      8 H           9.0367   13.2882    0.0853 H       1  UNL1        0.0000
      9 H           8.4395   14.0243    1.5653 H       1  UNL1        0.0000
     10 C           9.7673   10.1706    1.4274 C.3     1  UNL1        0.0000
     11 H          10.4020    9.5176    2.0189 H       1  UNL1        0.0000
     12 H          10.1212   10.1301    0.4027 H       1  UNL1        0.0000
     13 H           8.7643    9.7546    1.4425 H       1  UNL1        0.0000
     14 C           9.1899   11.9438    3.8646 C.2     1  UNL1        0.0000
     15 C           9.9607   12.1844    5.0437 C.2     1  UNL1        0.0000
     16 H          11.0294   12.3698    5.0590 H       1  UNL1        0.0000
     17 C           9.1831   11.8129    6.1760 C.2     1  UNL1        0.0000
     18 H           9.5423   11.7507    7.1959 H       1  UNL1        0.0000
     19 C           7.9290   11.3886    5.7128 C.2     1  UNL1        0.0000
     20 H           7.1544   10.9439    6.3235 H       1  UNL1        0.0000
     21 C           7.9336   11.4715    4.3034 C.3     1  UNL1        0.0000
     22 H           7.1607   11.0768    3.6560 H       1  UNL1        0.0000
@<TRIPOS>BOND
     1     8     6    1
     2    12    10    1
     3     7     6    1
     4     4     2    1
     5     6     9    1
     6     6     1    1
     7    10    13    1
     8    10    11    1
     9    10     1    1
    10     2     1    1
    11     2     3    1
    12     2     5    1
    13     1    14    1
    14    22    21    1
    15    14    21    1
    16    14    15    2
    17    21    19    1
    18    15    16    1
    19    15    17    1
    20    19    17    2
    21    19    20    1
    22    17    18    1
