@<TRIPOS>MOLECULE
2,3,5,7,9
 22 22 0 0 0
SMALL
GASTEIGER

@<TRIPOS>ATOM
      1 SI          4.0642    8.0145   11.8010 Si      1  UNL1        0.0000
      2 C           3.4094    7.0391   10.3346 C.2     1  UNL1        0.0000
      3 C           2.4134    6.0134   10.4196 C.3     1  UNL1        0.0000
      4 H           1.8760    5.7562   11.3235 H       1  UNL1        0.0000
      5 C           2.0224    5.6714    9.1039 C.3     1  UNL1        0.0000
      6 H           1.1362    5.1039    8.8410 H       1  UNL1        0.0000
      7 C           2.7905    6.4463    8.2049 C.3     1  UNL1        0.0000
      8 H           2.6352    6.4973    7.1330 H       1  UNL1        0.0000
      9 C           3.6160    7.2938    8.9611 C.2     1  UNL1        0.0000
     10 H           4.2639    8.0645    8.5649 H       1  UNL1        0.0000
     11 C           4.1682    6.8685   13.3263 C.3     1  UNL1        0.0000
     12 H           3.1812    6.6087   13.6962 H       1  UNL1        0.0000
     13 H           4.7095    7.3358   14.1430 H       1  UNL1        0.0000
     14 H           4.6785    5.9451   13.0648 H       1  UNL1        0.0000
     15 C           2.8503    9.4535   12.1689 C.3     1  UNL1        0.0000
     16 H           2.7758   10.1380   11.3293 H       1  UNL1        0.0000
     17 H           3.1807   10.0246   13.0305 H       1  UNL1        0.0000
     18 H           1.8507    9.0866   12.3809 H       1  UNL1        0.0000
     19 C           5.7923    8.7415   11.4336 C.3     1  UNL1        0.0000
     20 H           6.4806    7.9492   11.1585 H       1  UNL1        0.0000
     21 H           6.1951    9.2577   12.2993 H       1  UNL1        0.0000
     22 H           5.7603    9.4510   10.6129 H       1  UNL1        0.0000
@<TRIPOS>BOND
     1     8     7    1
     2     7     9    1
     3     7     5    1
     4    10     9    1
     5     6     5    1
     6     9     2    2
     7     5     3    1
     8     2     3    1
     9     2     1    1
    10     3     4    1
    11    22    19    1
    12    20    19    1
    13    16    15    1
    14    19     1    1
    15    19    21    1
    16     1    15    1
    17     1    11    1
    18    15    18    1
    19    15    17    1
    20    14    11    1
    21    11    12    1
    22    11    13    1
