@<TRIPOS>MOLECULE
1,3,5,7,9
 10 10 0 0 0
SMALL
GASTEIGER

@<TRIPOS>ATOM
      1 C           9.9367    9.0753    0.8189 C.2     1  UNL1       -0.0654
      2 H           9.3136    8.3479    0.3277 H       1  UNL1        0.0615
      3 C          11.2008    8.8278    1.3924 C.2     1  UNL1       -0.0763
      4 H          11.7021    7.8744    1.4341 H       1  UNL1        0.0578
      5 C          11.7636   10.0703    1.7737 C.3     1  UNL1        0.0054
      6 H          12.7662   10.2233    2.1363 H       1  UNL1        0.0394
      7 C          10.8499   11.0867    1.4083 C.2     1  UNL1       -0.0763
      8 H          11.0348   12.1465    1.4704 H       1  UNL1        0.0578
      9 C           9.7140   10.4759    0.8359 C.2     1  UNL1       -0.0654
     10 H           8.8894   10.9812    0.3625 H       1  UNL1        0.0615
@<TRIPOS>BOND
     1     2     1    1
     2    10     9    1
     3     1     9    1
     4     1     3    2
     5     9     7    2
     6     3     4    1
     7     3     5    1
     8     7     8    1
     9     7     5    1
    10     5     6    1
