@<TRIPOS>MOLECULE
1,3,5,7,9
 10 10 0 0 0
SMALL
GASTEIGER

@<TRIPOS>ATOM
      1 C           2.9727    8.0834    7.7393 C.3     1  UNL1       -0.0235
      2 H           1.9446    8.0315    7.4063 H       1  UNL1        0.0315
      3 C           3.6394    7.1379    8.5509 C.3     1  UNL1       -0.0127
      4 H           3.2113    6.2276    8.9491 H       1  UNL1        0.0352
      5 C           4.9822    8.9701    8.3729 C.2     1  UNL1       -0.0837
      6 H           5.7797    9.6803    8.5454 H       1  UNL1        0.0572
      7 C           4.8730    7.6966    8.9449 C.2     1  UNL1       -0.0837
      8 H           5.5648    7.2652    9.6577 H       1  UNL1        0.0572
      9 C           3.8129    9.2149    7.6211 C.3     1  UNL1       -0.0127
     10 H           3.5409   10.1549    7.1580 H       1  UNL1        0.0352
@<TRIPOS>BOND
     1    10     9    1
     2     2     1    1
     3     9     1    1
     4     9     5    1
     5     1     3    1
     6     5     6    1
     7     5     7    2
     8     3     7    1
     9     3     4    1
    10     7     8    1
