@<TRIPOS>MOLECULE
1,3,5,7,9
 10 10 0 0 0
SMALL
GASTEIGER

@<TRIPOS>ATOM
      1 C           5.9513    5.3712    7.3331 C.2     1  UNL1       -0.0763
      2 H           5.8834    4.9090    8.3102 H       1  UNL1        0.0578
      3 C           6.8906    6.3490    6.9490 C.3     1  UNL1        0.0054
      4 H           7.6727    6.7469    7.5851 H       1  UNL1        0.0394
      5 C           6.7503    6.5658    5.5598 C.2     1  UNL1       -0.0763
      6 H           7.4223    7.1264    4.9216 H       1  UNL1        0.0578
      7 C           5.7066    5.7290    5.0970 C.2     1  UNL1       -0.0654
      8 H           5.4376    5.5765    4.0600 H       1  UNL1        0.0615
      9 C           5.2272    4.9883    6.1958 C.2     1  UNL1       -0.0654
     10 H           4.5150    4.1797    6.1381 H       1  UNL1        0.0615
@<TRIPOS>BOND
     1     8     7    1
     2     6     5    1
     3     7     5    2
     4     7     9    1
     5     5     3    1
     6    10     9    1
     7     9     1    2
     8     3     1    1
     9     3     4    1
    10     1     2    1
