@<TRIPOS>MOLECULE
1,3,5,7,9
 10 10 0 0 0
SMALL
GASTEIGER

@<TRIPOS>ATOM
      1 C          -2.1813    0.5705   -0.0629 C.3     1  UNL1        0.0054
      2 H          -1.4567    0.0511   -0.6815 H       1  UNL1        0.0394
      3 C          -2.5516    1.9249   -0.2013 C.2     1  UNL1       -0.0763
      4 H          -2.1503    2.6175   -0.9304 H       1  UNL1        0.0578
      5 C          -3.6104    2.1855    0.6953 C.2     1  UNL1       -0.0654
      6 H          -4.1865    3.1028    0.7421 H       1  UNL1        0.0615
      7 C          -3.9087    0.9838    1.3714 C.2     1  UNL1       -0.0654
      8 H          -4.7326    0.8213    2.0545 H       1  UNL1        0.0615
      9 C          -3.0207   -0.0115    0.9164 C.2     1  UNL1       -0.0763
     10 H          -3.0724   -1.0635    1.1805 H       1  UNL1        0.0578
@<TRIPOS>BOND
     1     4     3    1
     2     2     1    1
     3     3     1    1
     4     3     5    2
     5     1     9    1
     6     5     6    1
     7     5     7    1
     8     9    10    1
     9     9     7    2
    10     7     8    1
