@<TRIPOS>MOLECULE
1,2,3,4,5
 10 10 0 0 0
SMALL
GASTEIGER

@<TRIPOS>ATOM
      1 C          -3.1749   10.8507   14.5325 C.2     1  UNL1       -0.0654
      2 C          -2.6824   10.1878   13.3928 C.2     1  UNL1       -0.0763
      3 C          -3.7683    9.9593   12.5189 C.3     1  UNL1        0.0054
      4 C          -4.9377   10.4835   13.1324 C.2     1  UNL1       -0.0763
      5 C          -4.5641   11.0292   14.3784 C.2     1  UNL1       -0.0654
      6 H          -2.5637   11.2476   15.3274 H       1  UNL1        0.0615
      7 H          -1.6413    9.9846   13.1857 H       1  UNL1        0.0578
      8 H          -3.6826    9.6145   11.4952 H       1  UNL1        0.0394
      9 H          -5.9065   10.6057   12.6645 H       1  UNL1        0.0578
     10 H          -5.2153   11.5899   15.0368 H       1  UNL1        0.0615
@<TRIPOS>BOND
     1     8     3    1
     2     3     4    1
     3     3     2    1
     4     9     4    1
     5     4     5    2
     6     7     2    1
     7     2     1    2
     8     5     1    1
     9     5    10    1
    10     1     6    1
