@<TRIPOS>MOLECULE
1,3,5,7,9
 10 10 0 0 0
SMALL
GASTEIGER

@<TRIPOS>ATOM
      1 C           6.3919   -0.5406   10.5091 C.3     1  UNL1       -0.0127
      2 H           6.8524   -1.2573    9.8493 H       1  UNL1        0.0352
      3 C           5.1316    0.0824   10.3068 C.3     1  UNL1       -0.0235
      4 H           4.4894   -0.0600    9.4527 H       1  UNL1        0.0315
      5 C           4.8153    0.8118   11.4691 C.3     1  UNL1       -0.0127
      6 H           3.8868    1.3220   11.6662 H       1  UNL1        0.0352
      7 C           5.8777    0.6344   12.3975 C.2     1  UNL1       -0.0837
      8 H           5.8675    0.9628   13.4234 H       1  UNL1        0.0572
      9 C           6.8255   -0.2369   11.8205 C.2     1  UNL1       -0.0837
     10 H           7.6929   -0.6458   12.3105 H       1  UNL1        0.0572
@<TRIPOS>BOND
     1     4     3    1
     2     2     1    1
     3     3     1    1
     4     3     5    1
     5     1     9    1
     6     5     6    1
     7     5     7    1
     8     9    10    1
     9     9     7    2
    10     7     8    1
