@<TRIPOS>MOLECULE
1,3,5,7,9
 10 10 0 0 0
SMALL
GASTEIGER

@<TRIPOS>ATOM
      1 C          10.3396   -1.4843    2.9299 C.2     1  UNL1       -0.0763
      2 H           9.4382   -2.0646    3.0407 H       1  UNL1        0.0578
      3 C          11.4105   -1.7754    2.0406 C.3     1  UNL1        0.0054
      4 H          11.4693   -2.6375    1.3961 H       1  UNL1        0.0394
      5 C          12.4734   -0.8922    2.3295 C.2     1  UNL1       -0.0763
      6 H          13.4588   -0.9227    1.8987 H       1  UNL1        0.0578
      7 C          12.0336    0.0005    3.3296 C.2     1  UNL1       -0.0654
      8 H          12.6466    0.7352    3.8253 H       1  UNL1        0.0615
      9 C          10.7233   -0.3875    3.7225 C.2     1  UNL1       -0.0654
     10 H          10.1685    0.0221    4.5510 H       1  UNL1        0.0615
@<TRIPOS>BOND
     1     4     3    1
     2     6     5    1
     3     3     5    1
     4     3     1    1
     5     5     7    2
     6     1     2    1
     7     1     9    2
     8     7     9    1
     9     7     8    1
    10     9    10    1
