@<TRIPOS>MOLECULE
1,3,5,7,9
 10 10 0 0 0
SMALL
GASTEIGER

@<TRIPOS>ATOM
      1 C           1.5485    9.0846    5.3254 C.2     1  UNL1       -0.0763
      2 H           2.5090    9.2327    5.7897 H       1  UNL1        0.0578
      3 C           0.6758    7.9911    5.5533 C.3     1  UNL1        0.0054
      4 H           0.8853    7.1492    6.1919 H       1  UNL1        0.0394
      5 C          -0.3925    8.0830    4.6266 C.2     1  UNL1       -0.0763
      6 H          -1.1566    7.3398    4.4692 H       1  UNL1        0.0578
      7 C          -0.2144    9.2616    3.8737 C.2     1  UNL1       -0.0654
      8 H          -0.8111    9.5716    3.0311 H       1  UNL1        0.0615
      9 C           0.9828    9.8843    4.3132 C.2     1  UNL1       -0.0654
     10 H           1.4519   10.7340    3.8467 H       1  UNL1        0.0615
@<TRIPOS>BOND
     1     8     7    1
     2    10     9    1
     3     7     9    1
     4     7     5    2
     5     9     1    2
     6     6     5    1
     7     5     3    1
     8     1     3    1
     9     1     2    1
    10     3     4    1
