@<TRIPOS>MOLECULE
2,3,4,5,6
 32 33 0 0 0
SMALL
GASTEIGER

@<TRIPOS>ATOM
      1 SI          6.6876    9.7098   11.8212 Si      1  UNL1        0.0000
      2 C           9.0272   11.5235   11.3200 C.3     1  UNL1        0.0000
      3 C           7.9814   10.6731   10.8581 C.3     1  UNL1        0.0000
      4 C           8.1531   10.5834    9.4452 C.3     1  UNL1        0.0000
      5 C           9.3632   11.2094    9.0612 C.2     1  UNL1        0.0000
      6 C           9.8816   11.8374   10.1996 C.2     1  UNL1        0.0000
      7 C           9.3690   11.8162   12.7150 C.ar    1  UNL1        0.0000
      8 C           8.4210   12.3073   13.6096 C.ar    1  UNL1        0.0000
      9 C           8.7571   12.5538   14.9266 C.ar    1  UNL1        0.0000
     10 C          10.0472   12.3171   15.3731 C.ar    1  UNL1        0.0000
     11 C          11.0003   11.8384   14.4904 C.ar    1  UNL1        0.0000
     12 C          10.6658   11.5915   13.1720 C.ar    1  UNL1        0.0000
     13 C           6.1059    8.2709   10.7070 C.3     1  UNL1        0.0000
     14 C           7.4351    8.9882   13.4197 C.3     1  UNL1        0.0000
     15 C           5.1461   10.7710   12.2274 C.3     1  UNL1        0.0000
     16 H           7.5896    9.9102    8.8151 H       1  UNL1        0.0000
     17 H           9.8190   11.1722    8.0851 H       1  UNL1        0.0000
     18 H          10.8298   12.3468   10.2756 H       1  UNL1        0.0000
     19 H           7.4226   12.5134   13.2528 H       1  UNL1        0.0000
     20 H           8.0122   12.9374   15.6091 H       1  UNL1        0.0000
     21 H          10.3099   12.5097   16.4030 H       1  UNL1        0.0000
     22 H          12.0092   11.6550   14.8318 H       1  UNL1        0.0000
     23 H          11.4114   11.2070   12.4902 H       1  UNL1        0.0000
     24 H           5.5886    8.6354    9.8241 H       1  UNL1        0.0000
     25 H           6.9395    7.6600   10.3738 H       1  UNL1        0.0000
     26 H           5.4191    7.6219   11.2416 H       1  UNL1        0.0000
     27 H           7.7114    9.7680   14.1213 H       1  UNL1        0.0000
     28 H           8.3277    8.4058   13.2118 H       1  UNL1        0.0000
     29 H           6.7230    8.3345   13.9142 H       1  UNL1        0.0000
     30 H           4.2967   10.1423   12.4794 H       1  UNL1        0.0000
     31 H           5.3205   11.4328   13.0702 H       1  UNL1        0.0000
     32 H           4.8612   11.3889   11.3792 H       1  UNL1        0.0000
@<TRIPOS>BOND
     1    17     5    1
     2    16     4    1
     3     5     4    1
     4     5     6    2
     5     4     3    1
     6    24    13    1
     7     6    18    1
     8     6     2    1
     9    25    13    1
    10    13    26    1
    11    13     1    1
    12     3     2    1
    13     3     1    1
    14     2     7    1
    15    32    15    1
    16     1    15    1
    17     1    14    1
    18    15    30    1
    19    15    31    1
    20    23    12    1
    21     7    12   ar
    22     7     8   ar
    23    12    11   ar
    24    28    14    1
    25    19     8    1
    26    14    29    1
    27    14    27    1
    28     8     9   ar
    29    11    22    1
    30    11    10   ar
    31     9    10   ar
    32     9    20    1
    33    10    21    1
