@<TRIPOS>MOLECULE
1,2,3,4,5
 16 16 0 0 0
SMALL
GASTEIGER

@<TRIPOS>ATOM
      1 C           5.0573   -4.3323   12.6767 C.2     1  UNL1       -0.0720
      2 C           5.6434   -3.3585   11.8335 C.3     1  UNL1       -0.0094
      3 C           6.4567   -4.0301   10.8837 C.3     1  UNL1       -0.0202
      4 C           6.3622   -5.4204   11.1273 C.3     1  UNL1       -0.0011
      5 C           5.4887   -5.6001   12.2270 C.2     1  UNL1       -0.0777
      6 C           4.2612   -4.0550   13.9163 C.3     1  UNL1       -0.0435
      7 C           7.1645   -6.4897   10.4472 C.3     1  UNL1       -0.0550
      8 H           5.6168   -2.2864   11.9903 H       1  UNL1        0.0354
      9 H           7.1600   -3.5525   10.2143 H       1  UNL1        0.0318
     10 H           5.2586   -6.5484   12.6987 H       1  UNL1        0.0577
     11 H           4.9302   -4.0114   14.7794 H       1  UNL1        0.0274
     12 H           3.7411   -3.1003   13.8398 H       1  UNL1        0.0274
     13 H           3.5254   -4.8380   14.0952 H       1  UNL1        0.0274
     14 H           6.5821   -7.4039   10.3329 H       1  UNL1        0.0238
     15 H           7.4934   -6.1589    9.4619 H       1  UNL1        0.0238
     16 H           8.0505   -6.7228   11.0429 H       1  UNL1        0.0238
@<TRIPOS>BOND
     1    15     7    1
     2     9     3    1
     3    14     7    1
     4     7    16    1
     5     7     4    1
     6     3     4    1
     7     3     2    1
     8     4     5    1
     9     2     8    1
    10     2     1    1
    11     5     1    2
    12     5    10    1
    13     1     6    1
    14    12     6    1
    15     6    13    1
    16     6    11    1
