@<TRIPOS>MOLECULE
1,3,5,6,7
 16 16 0 0 0
SMALL
GASTEIGER

@<TRIPOS>ATOM
      1 C           2.4927    4.5961    3.1274 C.3     1  UNL1        0.0060
      2 H           2.7211    5.6025    3.4552 H       1  UNL1        0.0394
      3 C           1.8537    3.5998    3.9343 C.2     1  UNL1       -0.0732
      4 H           1.4010    3.7690    4.9021 H       1  UNL1        0.0581
      5 C           2.1114    2.3386    3.3692 C.2     1  UNL1       -0.0511
      6 C           2.8475    2.5366    2.1592 C.2     1  UNL1       -0.0511
      7 C           3.1296    3.9411    2.0250 C.2     1  UNL1       -0.0732
      8 H           3.8903    4.3621    1.3806 H       1  UNL1        0.0581
      9 C           1.8430    1.0095    4.0054 C.3     1  UNL1       -0.0397
     10 H           2.7741    0.6215    4.4241 H       1  UNL1        0.0278
     11 H           1.4743    0.2861    3.2814 H       1  UNL1        0.0278
     12 H           1.1182    1.1017    4.8116 H       1  UNL1        0.0278
     13 C           3.5072    1.4390    1.3747 C.3     1  UNL1       -0.0397
     14 H           4.3662    1.0513    1.9271 H       1  UNL1        0.0278
     15 H           3.8510    1.8151    0.4142 H       1  UNL1        0.0278
     16 H           2.8161    0.6172    1.1954 H       1  UNL1        0.0278
@<TRIPOS>BOND
     1    15    13    1
     2    16    13    1
     3    13    14    1
     4    13     6    1
     5     8     7    1
     6     7     6    2
     7     7     1    1
     8     6     5    1
     9     1     2    1
    10     1     3    1
    11    11     9    1
    12     5     3    2
    13     5     9    1
    14     3     4    1
    15     9    10    1
    16     9    12    1
