@<TRIPOS>MOLECULE
1,2,3,4,5
 25 25 0 0 0
SMALL
GASTEIGER

@<TRIPOS>ATOM
      1 C          -1.9951    2.6595    4.1636 C.2     1  UNL1       -0.0658
      2 C          -1.0177    3.5103    3.5410 C.3     1  UNL1        0.0052
      3 C          -0.6121    2.8901    2.3217 C.3     1  UNL1       -0.0053
      4 C          -1.3218    1.6435    2.2121 C.3     1  UNL1        0.0052
      5 C          -2.1938    1.5245    3.3313 C.2     1  UNL1       -0.0658
      6 C          -2.9089    3.1064    5.2679 C.3     1  UNL1       -0.0430
      7 H          -2.3643    3.4239    6.1582 H       1  UNL1        0.0275
      8 H          -3.6020    2.3181    5.5556 H       1  UNL1        0.0275
      9 H          -3.4975    3.9588    4.9204 H       1  UNL1        0.0275
     10 C          -0.7749    4.9490    3.8946 C.3     1  UNL1       -0.0545
     11 H           0.2562    5.2365    3.6946 H       1  UNL1        0.0239
     12 H          -0.9911    5.1453    4.9438 H       1  UNL1        0.0239
     13 H          -1.4281    5.5870    3.2934 H       1  UNL1        0.0239
     14 C           0.0878    3.5718    1.1848 C.3     1  UNL1       -0.0574
     15 H          -0.6588    3.9865    0.5021 H       1  UNL1        0.0236
     16 H           0.7154    2.8811    0.6245 H       1  UNL1        0.0236
     17 H           0.7199    4.3828    1.5380 H       1  UNL1        0.0236
     18 C          -1.4070    0.8266    0.9567 C.3     1  UNL1       -0.0545
     19 H          -1.6596   -0.2114    1.1661 H       1  UNL1        0.0239
     20 H          -0.4669    0.8502    0.4086 H       1  UNL1        0.0239
     21 H          -2.1860    1.2403    0.3107 H       1  UNL1        0.0239
     22 C          -3.3349    0.5549    3.4085 C.3     1  UNL1       -0.0430
     23 H          -4.1847    0.9664    2.8564 H       1  UNL1        0.0275
     24 H          -3.6573    0.3737    4.4314 H       1  UNL1        0.0275
     25 H          -3.0770   -0.3993    2.9524 H       1  UNL1        0.0275
@<TRIPOS>BOND
     1    21    18    1
     2    20    18    1
     3    15    14    1
     4    16    14    1
     5    18    19    1
     6    18     4    1
     7    14    17    1
     8    14     3    1
     9     4     3    1
    10     4     5    1
    11     3     2    1
    12    23    22    1
    13    25    22    1
    14    13    10    1
    15     5    22    1
    16     5     1    2
    17    22    24    1
    18     2    10    1
    19     2     1    1
    20    11    10    1
    21    10    12    1
    22     1     6    1
    23     9     6    1
    24     6     8    1
    25     6     7    1
