@<TRIPOS>MOLECULE
1,2,3,4,5
 25 25 0 0 0
SMALL
GASTEIGER

@<TRIPOS>ATOM
      1 C           2.0966    2.8784    1.5143 C.2     1  UNL1       -0.0658
      2 C           0.8819    2.5574    0.8267 C.3     1  UNL1        0.0052
      3 C           0.1810    1.5816    1.6044 C.3     1  UNL1       -0.0053
      4 C           0.9451    1.3216    2.7818 C.3     1  UNL1        0.0052
      5 C           2.1204    2.1395    2.7297 C.2     1  UNL1       -0.0658
      6 C           3.2855    3.5434    0.8861 C.3     1  UNL1       -0.0430
      7 H           3.7328    2.8532    0.1653 H       1  UNL1        0.0275
      8 H           4.0418    3.7835    1.6294 H       1  UNL1        0.0275
      9 H           3.0212    4.4546    0.3535 H       1  UNL1        0.0275
     10 C           0.6084    2.8237   -0.6268 C.3     1  UNL1       -0.0545
     11 H           0.7321    1.8969   -1.1925 H       1  UNL1        0.0239
     12 H           1.3026    3.5562   -1.0342 H       1  UNL1        0.0239
     13 H          -0.4078    3.1818   -0.7977 H       1  UNL1        0.0239
     14 C          -0.9334    0.7074    1.1095 C.3     1  UNL1       -0.0574
     15 H          -0.5217   -0.2524    0.7875 H       1  UNL1        0.0236
     16 H          -1.4450    1.1554    0.2594 H       1  UNL1        0.0236
     17 H          -1.6635    0.5101    1.8938 H       1  UNL1        0.0236
     18 C           0.7828    0.1187    3.6592 C.3     1  UNL1       -0.0545
     19 H           1.3196   -0.7212    3.2092 H       1  UNL1        0.0239
     20 H          -0.2625   -0.1602    3.7626 H       1  UNL1        0.0239
     21 H           1.1871    0.2873    4.6541 H       1  UNL1        0.0239
     22 C           3.2913    1.9728    3.6530 C.3     1  UNL1       -0.0430
     23 H           3.8729    1.1001    3.3454 H       1  UNL1        0.0275
     24 H           2.9583    1.8118    4.6774 H       1  UNL1        0.0275
     25 H           3.9482    2.8402    3.6366 H       1  UNL1        0.0275
@<TRIPOS>BOND
     1    11    10    1
     2    12    10    1
     3    13    10    1
     4    10     2    1
     5     7     6    1
     6    16    14    1
     7     9     6    1
     8    15    14    1
     9     2     1    1
    10     2     3    1
    11     6     1    1
    12     6     8    1
    13    14     3    1
    14    14    17    1
    15     1     5    2
    16     3     4    1
    17     5     4    1
    18     5    22    1
    19     4    18    1
    20    19    18    1
    21    23    22    1
    22    25    22    1
    23    22    24    1
    24    18    20    1
    25    18    21    1
