@<TRIPOS>MOLECULE
1,2,3,4,5
 25 25 0 0 0
SMALL
GASTEIGER

@<TRIPOS>ATOM
      1 C           1.9137    5.2574    6.8489 C.3     1  UNL1        0.0052
      2 C           2.4228    6.5869    6.6615 C.3     1  UNL1       -0.0053
      3 C           1.9138    7.0720    5.4221 C.3     1  UNL1        0.0052
      4 C           1.0800    6.0491    4.8526 C.2     1  UNL1       -0.0658
      5 C           1.0752    4.9369    5.7389 C.2     1  UNL1       -0.0658
      6 C           1.9563    4.5022    8.1439 C.3     1  UNL1       -0.0545
      7 H           1.1167    4.8182    8.7684 H       1  UNL1        0.0239
      8 H           2.8765    4.7046    8.6888 H       1  UNL1        0.0239
      9 H           1.8735    3.4277    7.9882 H       1  UNL1        0.0239
     10 C           3.0577    7.4347    7.7220 C.3     1  UNL1       -0.0574
     11 H           2.2759    7.8703    8.3497 H       1  UNL1        0.0236
     12 H           3.6327    8.2458    7.2806 H       1  UNL1        0.0236
     13 H           3.7229    6.8545    8.3586 H       1  UNL1        0.0236
     14 C           1.9219    8.5128    5.0046 C.3     1  UNL1       -0.0545
     15 H           1.2996    9.0885    5.6938 H       1  UNL1        0.0239
     16 H           1.5188    8.6385    4.0014 H       1  UNL1        0.0239
     17 H           2.9270    8.9318    5.0291 H       1  UNL1        0.0239
     18 C           0.0939    6.3067    3.7504 C.3     1  UNL1       -0.0430
     19 H          -0.5989    7.0882    4.0714 H       1  UNL1        0.0275
     20 H          -0.4916    5.4187    3.5208 H       1  UNL1        0.0275
     21 H           0.5747    6.6509    2.8335 H       1  UNL1        0.0275
     22 C           0.1167    3.7839    5.7189 C.3     1  UNL1       -0.0430
     23 H          -0.7567    4.0372    6.3261 H       1  UNL1        0.0275
     24 H           0.5647    2.8863    6.1427 H       1  UNL1        0.0275
     25 H          -0.2286    3.5573    4.7124 H       1  UNL1        0.0275
@<TRIPOS>BOND
     1    21    18    1
     2    20    18    1
     3    18    19    1
     4    18     4    1
     5    16    14    1
     6    25    22    1
     7     4     3    1
     8     4     5    2
     9    14    17    1
    10    14     3    1
    11    14    15    1
    12     3     2    1
    13    22     5    1
    14    22    24    1
    15    22    23    1
    16     5     1    1
    17     2     1    1
    18     2    10    1
    19     1     6    1
    20    12    10    1
    21    10    11    1
    22    10    13    1
    23     9     6    1
    24     6     8    1
    25     6     7    1
