@<TRIPOS>MOLECULE
1,3,5,7,9
 19 19 0 0 0
SMALL
GASTEIGER

@<TRIPOS>ATOM
      1 C          -0.8994    6.8461   16.4814 C.3     1  UNL1       -0.0107
      2 H          -1.3757    7.8198   16.4089 H       1  UNL1        0.0354
      3 C           0.3893    6.6793   15.9935 C.2     1  UNL1       -0.0835
      4 H           0.8745    7.4909   15.4547 H       1  UNL1        0.0572
      5 C           1.0875    5.4707   16.1783 C.2     1  UNL1       -0.0837
      6 H           2.1157    5.3629   15.8567 H       1  UNL1        0.0572
      7 C           0.3834    4.3894   16.7416 C.3     1  UNL1       -0.0127
      8 H           0.8642    3.4141   16.7866 H       1  UNL1        0.0352
      9 C          -0.9056    4.5488   17.2317 C.3     1  UNL1       -0.0246
     10 H          -1.3866    3.7223   17.7473 H       1  UNL1        0.0315
     11 C          -1.3630    5.9480   17.6200 C.3     1  UNL1       -0.0244
     12 C          -0.7070    6.3815   18.9516 C.3     1  UNL1       -0.0590
     13 H          -1.0071    5.7172   19.7592 H       1  UNL1        0.0235
     14 H          -0.9992    7.3975   19.2081 H       1  UNL1        0.0235
     15 H           0.3761    6.3461   18.8590 H       1  UNL1        0.0235
     16 C          -2.8865    6.0053   17.7830 C.3     1  UNL1       -0.0590
     17 H          -3.3819    5.7026   16.8565 H       1  UNL1        0.0235
     18 H          -3.2026    5.3426   18.5875 H       1  UNL1        0.0235
     19 H          -3.1985    7.0173   18.0378 H       1  UNL1        0.0235
@<TRIPOS>BOND
     1     4     3    1
     2     6     5    1
     3     3     5    2
     4     3     1    1
     5     5     7    1
     6     2     1    1
     7     1    11    1
     8     7     8    1
     9     7     9    1
    10    17    16    1
    11     9    11    1
    12     9    10    1
    13    11    16    1
    14    11    12    1
    15    16    19    1
    16    16    18    1
    17    15    12    1
    18    12    14    1
    19    12    13    1
