@<TRIPOS>MOLECULE
1,3,5,7,9
 10 10 0 0 0
SMALL
GASTEIGER

@<TRIPOS>ATOM
      1 C          -1.5062    4.2413   12.3882 C.2     1  UNL1       -0.0654
      2 H          -2.4552    4.0815   11.8938 H       1  UNL1        0.0615
      3 C          -0.7521    5.4301   12.3591 C.2     1  UNL1       -0.0763
      4 H          -1.0098    6.3206   11.8020 H       1  UNL1        0.0578
      5 C           0.4667    5.1913   13.0292 C.3     1  UNL1        0.0054
      6 H           1.3197    5.8616   13.0513 H       1  UNL1        0.0394
      7 C           0.4653    3.8469   13.4667 C.2     1  UNL1       -0.0763
      8 H           1.3169    3.3163   13.8796 H       1  UNL1        0.0578
      9 C          -0.7545    3.2618   13.0650 C.2     1  UNL1       -0.0654
     10 H          -1.0140    2.2144   13.1387 H       1  UNL1        0.0615
@<TRIPOS>BOND
     1     4     3    1
     2     2     1    1
     3     3     1    2
     4     3     5    1
     5     1     9    1
     6     5     6    1
     7     5     7    1
     8     9    10    1
     9     9     7    2
    10     7     8    1
