@<TRIPOS>MOLECULE
1,2,3,4,5
 10 10 0 0 0
SMALL
GASTEIGER

@<TRIPOS>ATOM
      1 C           4.0750    1.9060    4.4811 C.3     1  UNL1        0.0054
      2 C           2.7214    2.1287    4.7884 C.2     1  UNL1       -0.0763
      3 C           1.9499    1.2002    4.0601 C.2     1  UNL1       -0.0654
      4 C           2.8334    0.3779    3.3290 C.2     1  UNL1       -0.0654
      5 C           4.1507    0.8248    3.5894 C.2     1  UNL1       -0.0763
      6 H           4.9025    2.5348    4.7817 H       1  UNL1        0.0394
      7 H           2.3265    2.9563    5.3628 H       1  UNL1        0.0578
      8 H           0.8699    1.1927    3.9901 H       1  UNL1        0.0615
      9 H           2.5521   -0.3593    2.5884 H       1  UNL1        0.0615
     10 H           5.0416    0.4775    3.0834 H       1  UNL1        0.0578
@<TRIPOS>BOND
     1     9     4    1
     2    10     5    1
     3     4     5    2
     4     4     3    1
     5     5     1    1
     6     8     3    1
     7     3     2    2
     8     1     6    1
     9     1     2    1
    10     2     7    1
