@<TRIPOS>MOLECULE
1,2,3,4,5
 10 10 0 0 0
SMALL
GASTEIGER

@<TRIPOS>ATOM
      1 C           5.4409    0.8439    7.1562 C.2     1  UNL1       -0.0654
      2 C           4.3458    1.5654    7.6653 C.2     1  UNL1       -0.0654
      3 C           3.5253    0.6774    8.3717 C.2     1  UNL1       -0.0763
      4 C           4.0994   -0.6185    8.2816 C.3     1  UNL1        0.0054
      5 C           5.3096   -0.4946    7.5529 C.2     1  UNL1       -0.0763
      6 H           6.2988    1.2639    6.6487 H       1  UNL1        0.0615
      7 H           4.2110    2.6372    7.6072 H       1  UNL1        0.0615
      8 H           2.6694    0.9433    8.9780 H       1  UNL1        0.0578
      9 H           3.8062   -1.4788    8.8718 H       1  UNL1        0.0394
     10 H           6.0466   -1.2745    7.4216 H       1  UNL1        0.0578
@<TRIPOS>BOND
     1     6     1    1
     2     1     5    2
     3     1     2    1
     4    10     5    1
     5     5     4    1
     6     7     2    1
     7     2     3    2
     8     4     3    1
     9     4     9    1
    10     3     8    1
