@<TRIPOS>MOLECULE
1,6,8,10,12
 13 13 0 0 0
SMALL
GASTEIGER

@<TRIPOS>ATOM
      1 C           6.7462   -1.1728   12.4297 C.2     1  UNL1       -0.0650
      2 C           7.9984   -1.8437   11.9362 C.3     1  UNL1       -0.0429
      3 H           7.8030   -2.3437   10.9853 H       1  UNL1        0.0275
      4 H           8.3460   -2.5978   12.6401 H       1  UNL1        0.0275
      5 H           8.7937   -1.1142   11.7719 H       1  UNL1        0.0275
      6 C           5.8838   -1.6277   13.4582 C.3     1  UNL1        0.0084
      7 H           5.9822   -2.5599   13.9999 H       1  UNL1        0.0397
      8 C           4.7532   -0.7846   13.4944 C.2     1  UNL1       -0.0761
      9 H           3.8595   -0.9608   14.0798 H       1  UNL1        0.0578
     10 C           4.9085    0.2005   12.4930 C.2     1  UNL1       -0.0651
     11 H           4.1426    0.8813   12.1530 H       1  UNL1        0.0615
     12 C           6.1322   -0.0486   11.8269 C.2     1  UNL1       -0.0625
     13 H           6.4676    0.4346   10.9189 H       1  UNL1        0.0617
@<TRIPOS>BOND
     1    13    12    1
     2     3     2    1
     3     5     2    1
     4    12     1    2
     5    12    10    1
     6     2     1    1
     7     2     4    1
     8    11    10    1
     9     1     6    1
    10    10     8    2
    11     6     8    1
    12     6     7    1
    13     8     9    1
