@<TRIPOS>MOLECULE
1,6,8,10,12
 13 13 0 0 0
SMALL
GASTEIGER

@<TRIPOS>ATOM
      1 C           7.2778   -0.5261   16.2688 C.2     1  UNL1       -0.0650
      2 C           6.2275   -1.2180   17.0955 C.3     1  UNL1       -0.0429
      3 H           5.3847   -1.5629   16.4880 H       1  UNL1        0.0275
      4 H           5.8507   -0.5431   17.8636 H       1  UNL1        0.0275
      5 H           6.6517   -2.0904   17.5943 H       1  UNL1        0.0275
      6 C           8.7543    1.0592   15.5159 C.2     1  UNL1       -0.0761
      7 H           9.3615    1.9545   15.4726 H       1  UNL1        0.0578
      8 C           8.9994   -0.1379   14.8020 C.2     1  UNL1       -0.0651
      9 H           9.8422   -0.3217   14.1501 H       1  UNL1        0.0615
     10 C           8.1044   -1.1206   15.2870 C.2     1  UNL1       -0.0625
     11 H           8.1590   -2.1795   15.0711 H       1  UNL1        0.0617
     12 C           7.6912    0.8195   16.4151 C.3     1  UNL1        0.0084
     13 H           7.3389    1.5004   17.1785 H       1  UNL1        0.0397
@<TRIPOS>BOND
     1     9     8    1
     2     8    10    1
     3     8     6    2
     4    11    10    1
     5    10     1    2
     6     7     6    1
     7     6    12    1
     8     1    12    1
     9     1     2    1
    10    12    13    1
    11     3     2    1
    12     2     5    1
    13     2     4    1
