@<TRIPOS>MOLECULE
1,2,4,6,8
 22 22 0 0 0
SMALL
GASTEIGER

@<TRIPOS>ATOM
      1 C           0.8845   -5.7741   19.7754 C.2     1  UNL1       -0.0565
      2 C           1.1416   -6.0864   18.4128 C.2     1  UNL1       -0.0617
      3 H           0.6751   -5.6187   17.5558 H       1  UNL1        0.0617
      4 C           1.9578   -7.2340   18.3560 C.2     1  UNL1       -0.0651
      5 H           2.2086   -7.7900   17.4637 H       1  UNL1        0.0615
      6 C           2.2436   -7.6327   19.6822 C.2     1  UNL1       -0.0760
      7 H           2.7039   -8.5689   19.9686 H       1  UNL1        0.0578
      8 C           1.5753   -6.7389   20.5540 C.3     1  UNL1        0.0092
      9 H           1.4606   -6.8960   21.6177 H       1  UNL1        0.0397
     10 C          -0.2613   -4.8932   20.2473 C.3     1  UNL1       -0.0158
     11 C          -0.2329   -4.6881   21.7660 C.3     1  UNL1       -0.0563
     12 H          -1.0381   -4.0177   22.0582 H       1  UNL1        0.0238
     13 H           0.7076   -4.2492   22.0906 H       1  UNL1        0.0238
     14 H          -0.3812   -5.6310   22.2865 H       1  UNL1        0.0238
     15 C          -1.5630   -5.6285   19.8801 C.3     1  UNL1       -0.0563
     16 H          -1.6573   -5.7221   18.8018 H       1  UNL1        0.0238
     17 H          -2.4246   -5.0820   20.2563 H       1  UNL1        0.0238
     18 H          -1.5691   -6.6268   20.3114 H       1  UNL1        0.0238
     19 C          -0.2629   -3.5239   19.5567 C.3     1  UNL1       -0.0563
     20 H          -0.2351   -3.6254   18.4739 H       1  UNL1        0.0238
     21 H           0.5805   -2.9215   19.8864 H       1  UNL1        0.0238
     22 H          -1.1735   -2.9870   19.8144 H       1  UNL1        0.0238
@<TRIPOS>BOND
     1     5     4    1
     2     3     2    1
     3     4     2    1
     4     4     6    2
     5     2     1    2
     6    20    19    1
     7    16    15    1
     8    19    22    1
     9    19    21    1
    10    19    10    1
    11     6     7    1
    12     6     8    1
    13     1    10    1
    14     1     8    1
    15    15    10    1
    16    15    17    1
    17    15    18    1
    18    10    11    1
    19     8     9    1
    20    11    12    1
    21    11    13    1
    22    11    14    1
