@<TRIPOS>MOLECULE
1,2,4,6,8
 22 22 0 0 0
SMALL
GASTEIGER

@<TRIPOS>ATOM
      1 C           4.8585   -5.2793   21.4100 C.2     1  UNL1       -0.0565
      2 C           3.5603   -4.8203   21.7554 C.3     1  UNL1        0.0092
      3 H           2.9713   -5.1810   22.5883 H       1  UNL1        0.0397
      4 C           3.2955   -3.6369   21.0284 C.2     1  UNL1       -0.0760
      5 H           2.4666   -2.9596   21.1877 H       1  UNL1        0.0578
      6 C           4.4234   -3.3633   20.2269 C.2     1  UNL1       -0.0651
      7 H           4.5780   -2.4611   19.6548 H       1  UNL1        0.0615
      8 C           5.3800   -4.3755   20.4506 C.2     1  UNL1       -0.0617
      9 H           6.3892   -4.3663   20.0649 H       1  UNL1        0.0617
     10 C           5.6198   -6.3362   22.1844 C.3     1  UNL1       -0.0158
     11 C           5.9088   -5.7887   23.5920 C.3     1  UNL1       -0.0563
     12 H           6.4737   -4.8621   23.5278 H       1  UNL1        0.0238
     13 H           6.4880   -6.5094   24.1645 H       1  UNL1        0.0238
     14 H           4.9848   -5.5858   24.1269 H       1  UNL1        0.0238
     15 C           4.7680   -7.6056   22.2960 C.3     1  UNL1       -0.0563
     16 H           3.8523   -7.4119   22.8508 H       1  UNL1        0.0238
     17 H           5.3167   -8.3832   22.8229 H       1  UNL1        0.0238
     18 H           4.5165   -7.9638   21.2988 H       1  UNL1        0.0238
     19 C           6.9505   -6.6653   21.5021 C.3     1  UNL1       -0.0563
     20 H           6.7890   -6.9511   20.4645 H       1  UNL1        0.0238
     21 H           7.4408   -7.4870   22.0192 H       1  UNL1        0.0238
     22 H           7.6170   -5.8069   21.5333 H       1  UNL1        0.0238
@<TRIPOS>BOND
     1     7     6    1
     2     9     8    1
     3     6     8    1
     4     6     4    2
     5     8     1    2
     6    20    19    1
     7     4     5    1
     8     4     2    1
     9    18    15    1
    10     1     2    1
    11     1    10    1
    12    19    22    1
    13    19    21    1
    14    19    10    1
    15     2     3    1
    16    10    15    1
    17    10    11    1
    18    15    17    1
    19    15    16    1
    20    12    11    1
    21    11    14    1
    22    11    13    1
