@<TRIPOS>MOLECULE
1,3,5,7,9
 10 10 0 0 0
SMALL
GASTEIGER

@<TRIPOS>ATOM
      1 C           1.5901   10.3909    2.6623 C.2     1  UNL1       -0.0654
      2 H           1.1674   11.3504    2.4015 H       1  UNL1        0.0615
      3 C           2.4016   10.1297    3.7773 C.2     1  UNL1       -0.0763
      4 H           2.6580   10.8294    4.5604 H       1  UNL1        0.0578
      5 C           2.6601    8.7320    3.8113 C.3     1  UNL1        0.0054
      6 H           3.1002    8.1883    4.6395 H       1  UNL1        0.0394
      7 C           2.0105    8.1562    2.6881 C.2     1  UNL1       -0.0763
      8 H           1.9300    7.0980    2.4787 H       1  UNL1        0.0578
      9 C           1.3395    9.1771    2.0070 C.2     1  UNL1       -0.0654
     10 H           0.7070    9.0463    1.1417 H       1  UNL1        0.0615
@<TRIPOS>BOND
     1    10     9    1
     2     9     1    1
     3     9     7    2
     4     2     1    1
     5     8     7    1
     6     1     3    2
     7     7     5    1
     8     3     5    1
     9     3     4    1
    10     5     6    1
