@<TRIPOS>MOLECULE
1,3,5,7,9
 10 10 0 0 0
SMALL
GASTEIGER

@<TRIPOS>ATOM
      1 C           3.3802   10.3772    0.1688 C.3     1  UNL1       -0.0127
      2 H           2.4186   10.8362   -0.0190 H       1  UNL1        0.0352
      3 C           4.5614   11.0655    0.4995 C.2     1  UNL1       -0.0837
      4 H           4.6552   12.1365    0.6329 H       1  UNL1        0.0572
      5 C           5.6306   10.1446    0.4445 C.2     1  UNL1       -0.0837
      6 H           6.6775   10.3942    0.5575 H       1  UNL1        0.0572
      7 C           5.1054    8.8862    0.1002 C.3     1  UNL1       -0.0127
      8 H           5.6773    7.9885   -0.1007 H       1  UNL1        0.0352
      9 C           3.7088    9.0231   -0.0550 C.3     1  UNL1       -0.0235
     10 H           3.0409    8.2605   -0.4383 H       1  UNL1        0.0315
@<TRIPOS>BOND
     1    10     9    1
     2     8     7    1
     3     9     7    1
     4     9     1    1
     5     2     1    1
     6     7     5    1
     7     1     3    1
     8     5     3    2
     9     5     6    1
    10     3     4    1
