@<TRIPOS>MOLECULE
9,10,11,12,13
 57 59 0 0 0
SMALL
GASTEIGER

@<TRIPOS>ATOM
      1 SI         15.8143    2.3144    3.2816 Si      1  UNL1        0.0000
      2 SI         14.0760    2.8775    1.0377 Si      1  UNL1        0.0000
      3 SI         10.0929    2.6801    2.4040 Si      1  UNL1        0.0000
      4 SI         10.1448    1.9695    5.2130 Si      1  UNL1        0.0000
      5 SI         13.7410    1.7603    6.6041 Si      1  UNL1        0.0000
      6 O          15.5792    2.8052    1.7208 O.3     1  UNL1        0.0000
      7 O           9.3297    2.4457    3.8444 O.3     1  UNL1        0.0000
      8 O          12.4287    1.0790    7.3107 O.3     1  UNL1        0.0000
      9 C          14.0025    1.9276    3.6553 C.3     1  UNL1        0.0000
     10 C          13.1437    2.1753    2.5223 C.2     1  UNL1        0.0000
     11 C          11.8021    2.1059    2.9720 C.2     1  UNL1        0.0000
     12 C          11.8294    1.8067    4.3785 C.3     1  UNL1        0.0000
     13 C          13.1878    1.7309    4.8093 C.3     1  UNL1        0.0000
     14 C          17.0071    0.8400    3.2732 C.3     1  UNL1        0.0000
     15 H          17.2331    0.5131    4.2822 H       1  UNL1        0.0000
     16 H          17.9432    1.1109    2.7950 H       1  UNL1        0.0000
     17 H          16.5936   -0.0081    2.7358 H       1  UNL1        0.0000
     18 C          16.4750    3.7967    4.2673 C.3     1  UNL1        0.0000
     19 H          16.7444    3.5074    5.2767 H       1  UNL1        0.0000
     20 H          15.7537    4.6059    4.3259 H       1  UNL1        0.0000
     21 H          17.3662    4.1864    3.7867 H       1  UNL1        0.0000
     22 C          13.6402    4.7043    0.7535 C.3     1  UNL1        0.0000
     23 H          12.7503    4.7991    0.1419 H       1  UNL1        0.0000
     24 H          14.4532    5.2009    0.2341 H       1  UNL1        0.0000
     25 H          13.4670    5.2381    1.6825 H       1  UNL1        0.0000
     26 C          14.0568    1.8654   -0.5635 C.3     1  UNL1        0.0000
     27 H          13.0539    1.8200   -0.9751 H       1  UNL1        0.0000
     28 H          14.4001    0.8480   -0.4074 H       1  UNL1        0.0000
     29 H          14.7002    2.3220   -1.3087 H       1  UNL1        0.0000
     30 C          10.1100    4.5421    2.0233 C.3     1  UNL1        0.0000
     31 H           9.1108    4.9492    2.1374 H       1  UNL1        0.0000
     32 H          10.4272    4.7271    1.0035 H       1  UNL1        0.0000
     33 H          10.7690    5.0953    2.6849 H       1  UNL1        0.0000
     34 C           9.2305    1.6809    1.0452 C.3     1  UNL1        0.0000
     35 H           9.7878    1.7386    0.1159 H       1  UNL1        0.0000
     36 H           8.2373    2.0770    0.8600 H       1  UNL1        0.0000
     37 H           9.1259    0.6338    1.3080 H       1  UNL1        0.0000
     38 C           9.3857    0.3458    5.8298 C.3     1  UNL1        0.0000
     39 H           8.4438    0.5208    6.3401 H       1  UNL1        0.0000
     40 H          10.0593   -0.1434    6.5244 H       1  UNL1        0.0000
     41 H           9.1986   -0.3409    5.0094 H       1  UNL1        0.0000
     42 C          10.0556    3.4027    6.4543 C.3     1  UNL1        0.0000
     43 H          10.5573    3.1403    7.3777 H       1  UNL1        0.0000
     44 H           9.0197    3.6262    6.6874 H       1  UNL1        0.0000
     45 H          10.5076    4.3097    6.0642 H       1  UNL1        0.0000
     46 C          15.3542    0.8058    6.9547 C.3     1  UNL1        0.0000
     47 H          15.5972    0.8289    8.0140 H       1  UNL1        0.0000
     48 H          16.1955    1.2323    6.4185 H       1  UNL1        0.0000
     49 H          15.2708   -0.2365    6.6601 H       1  UNL1        0.0000
     50 C          13.9511    3.5708    7.1792 C.3     1  UNL1        0.0000
     51 H          14.7414    4.0823    6.6420 H       1  UNL1        0.0000
     52 H          14.2000    3.6111    8.2363 H       1  UNL1        0.0000
     53 H          13.0355    4.1376    7.0376 H       1  UNL1        0.0000
     54 C          12.2021    0.8161    8.6642 C.3     1  UNL1        0.0000
     55 H          11.1673    0.4908    8.7744 H       1  UNL1        0.0000
     56 H          12.3638    1.7103    9.2705 H       1  UNL1        0.0000
     57 H          12.8671    0.0260    9.0183 H       1  UNL1        0.0000
@<TRIPOS>BOND
     1    29    26    1
     2    27    26    1
     3    26    28    1
     4    26     2    1
     5    35    34    1
     6    23    22    1
     7    24    22    1
     8    22     2    1
     9    22    25    1
    10    36    34    1
    11    32    30    1
    12     2     6    1
    13     2    10    1
    14    34    37    1
    15    34     3    1
    16     6     1    1
    17    30    31    1
    18    30     3    1
    19    30    33    1
    20     3    11    1
    21     3     7    1
    22    10    11    2
    23    10     9    1
    24    17    14    1
    25    16    14    1
    26    11    12    1
    27    14     1    1
    28    14    15    1
    29     1     9    1
    30     1    18    1
    31     9    13    1
    32    21    18    1
    33     7     4    1
    34    18    20    1
    35    18    19    1
    36    12    13    1
    37    12     4    1
    38    13     5    1
    39    41    38    1
    40     4    38    1
    41     4    42    1
    42    38    39    1
    43    38    40    1
    44    45    42    1
    45    48    46    1
    46    42    44    1
    47    42    43    1
    48     5    46    1
    49     5    50    1
    50     5     8    1
    51    51    50    1
    52    49    46    1
    53    46    47    1
    54    53    50    1
    55    50    52    1
    56     8    54    1
    57    54    55    1
    58    54    57    1
    59    54    56    1
