@<TRIPOS>MOLECULE
2,3,5,7,9
 22 22 0 0 0
SMALL
GASTEIGER

@<TRIPOS>ATOM
      1 SI         10.1275   16.3303   15.8887 Si      1  UNL1        0.0000
      2 C           8.6902   16.6827   14.7278 C.3     1  UNL1        0.0000
      3 C           8.6877   17.5527   13.6038 C.2     1  UNL1        0.0000
      4 H           9.5393   18.1103   13.2519 H       1  UNL1        0.0000
      5 C           7.3921   17.6127   13.0714 C.2     1  UNL1        0.0000
      6 H           7.0534   18.2612   12.2806 H       1  UNL1        0.0000
      7 C           6.5527   16.8026   13.8879 C.2     1  UNL1        0.0000
      8 H           5.4794   16.7308   13.8014 H       1  UNL1        0.0000
      9 C           7.3444   16.2446   14.9037 C.2     1  UNL1        0.0000
     10 H           6.9885   15.6591   15.7346 H       1  UNL1        0.0000
     11 C          11.6738   15.8551   14.8832 C.3     1  UNL1        0.0000
     12 H          11.9636   16.6476   14.2003 H       1  UNL1        0.0000
     13 H          11.4865   14.9639   14.2929 H       1  UNL1        0.0000
     14 H          12.5219   15.6537   15.5300 H       1  UNL1        0.0000
     15 C          10.4725   17.9057   16.9151 C.3     1  UNL1        0.0000
     16 H          10.7464   18.7411   16.2783 H       1  UNL1        0.0000
     17 H          11.2883   17.7428   17.6123 H       1  UNL1        0.0000
     18 H           9.6020   18.2048   17.4910 H       1  UNL1        0.0000
     19 C           9.6400   14.8940   17.0426 C.3     1  UNL1        0.0000
     20 H          10.4573   14.6288   17.7057 H       1  UNL1        0.0000
     21 H           9.3825   14.0099   16.4686 H       1  UNL1        0.0000
     22 H           8.7865   15.1484   17.6635 H       1  UNL1        0.0000
@<TRIPOS>BOND
     1     6     5    1
     2     5     3    2
     3     5     7    1
     4     4     3    1
     5     3     2    1
     6     8     7    1
     7     7     9    2
     8    12    11    1
     9    13    11    1
    10     2     9    1
    11     2     1    1
    12    11    14    1
    13    11     1    1
    14     9    10    1
    15     1    15    1
    16     1    19    1
    17    16    15    1
    18    21    19    1
    19    15    18    1
    20    15    17    1
    21    19    22    1
    22    19    20    1
