@<TRIPOS>MOLECULE
1,3,5,7,9
 10 10 0 0 0
SMALL
GASTEIGER

@<TRIPOS>ATOM
      1 C           0.9514    2.3293    3.8746 C.2     1  UNL1       -0.0837
      2 H           0.4289    2.3943    4.8217 H       1  UNL1        0.0572
      3 C           2.2856    2.7391    3.6384 C.2     1  UNL1       -0.0837
      4 H           2.9602    3.1559    4.3784 H       1  UNL1        0.0572
      5 C           2.5229    2.7081    2.2475 C.3     1  UNL1       -0.0127
      6 H           3.4063    3.0920    1.7518 H       1  UNL1        0.0352
      7 C           1.3371    2.2824    1.6142 C.3     1  UNL1       -0.0235
      8 H           1.1394    2.3132    0.5492 H       1  UNL1        0.0315
      9 C           0.3590    2.0540    2.6264 C.3     1  UNL1       -0.0127
     10 H          -0.6947    1.8707    2.4491 H       1  UNL1        0.0352
@<TRIPOS>BOND
     1     8     7    1
     2     7     5    1
     3     7     9    1
     4     6     5    1
     5     5     3    1
     6    10     9    1
     7     9     1    1
     8     3     1    2
     9     3     4    1
    10     1     2    1
