@<TRIPOS>MOLECULE
1,3,5,7,9
 10 10 0 0 0
SMALL
GASTEIGER

@<TRIPOS>ATOM
      1 C           0.6407    0.9019    6.4417 C.2     1  UNL1       -0.0654
      2 H           0.0335    0.2773    7.0758 H       1  UNL1        0.0615
      3 C           0.9880    0.6366    5.1055 C.2     1  UNL1       -0.0763
      4 H           0.6945   -0.2276    4.5325 H       1  UNL1        0.0578
      5 C           1.9007    1.6408    4.6823 C.3     1  UNL1        0.0054
      6 H           2.4411    1.6391    3.7500 H       1  UNL1        0.0394
      7 C           2.1580    2.4899    5.7811 C.2     1  UNL1       -0.0763
      8 H           2.8942    3.2734    5.8186 H       1  UNL1        0.0578
      9 C           1.3394    2.0696    6.8521 C.2     1  UNL1       -0.0654
     10 H           1.3806    2.4483    7.8604 H       1  UNL1        0.0615
@<TRIPOS>BOND
     1     6     5    1
     2     4     3    1
     3     5     3    1
     4     5     7    1
     5     3     1    2
     6     7     8    1
     7     7     9    2
     8     1     9    1
     9     1     2    1
    10     9    10    1
