@<TRIPOS>MOLECULE
2,4,6,8,10
 22 22 0 0 0
SMALL
GASTEIGER

@<TRIPOS>ATOM
      1 SI         11.0391   12.1952    9.6418 Si      1  UNL1        0.0000
      2 C           9.9045    9.8674    8.2474 C.2     1  UNL1        0.0000
      3 H          10.8059    9.2727    8.3278 H       1  UNL1        0.0000
      4 C           8.9296    9.7239    7.2606 C.2     1  UNL1        0.0000
      5 H           8.8840    8.9357    6.5253 H       1  UNL1        0.0000
      6 C           8.0460   10.8163    7.3465 C.2     1  UNL1        0.0000
      7 H           7.2201   11.0054    6.6792 H       1  UNL1        0.0000
      8 C           8.4556   11.6363    8.3960 C.2     1  UNL1        0.0000
      9 H           8.0668   12.6227    8.6111 H       1  UNL1        0.0000
     10 C           9.6547   11.0860    8.9859 C.3     1  UNL1        0.0000
     11 C          11.2495   13.6861    8.4737 C.3     1  UNL1        0.0000
     12 H          12.1104   14.2840    8.7555 H       1  UNL1        0.0000
     13 H          10.3798   14.3351    8.4934 H       1  UNL1        0.0000
     14 H          11.3921   13.3636    7.4471 H       1  UNL1        0.0000
     15 C          10.6592   12.8448   11.4034 C.3     1  UNL1        0.0000
     16 H          10.4238   12.0507   12.1069 H       1  UNL1        0.0000
     17 H           9.8163   13.5290   11.3888 H       1  UNL1        0.0000
     18 H          11.5070   13.3974   11.7960 H       1  UNL1        0.0000
     19 C          12.6751   11.2014    9.6629 C.3     1  UNL1        0.0000
     20 H          12.5570   10.1997   10.0643 H       1  UNL1        0.0000
     21 H          13.4298   11.7127   10.2515 H       1  UNL1        0.0000
     22 H          13.0665   11.1036    8.6560 H       1  UNL1        0.0000
@<TRIPOS>BOND
     1     5     4    1
     2     7     6    1
     3     4     6    1
     4     4     2    2
     5     6     8    2
     6    14    11    1
     7     2     3    1
     8     2    10    1
     9     8     9    1
    10     8    10    1
    11    11    13    1
    12    11    12    1
    13    11     1    1
    14    22    19    1
    15    10     1    1
    16     1    19    1
    17     1    15    1
    18    19    20    1
    19    19    21    1
    20    17    15    1
    21    15    18    1
    22    15    16    1
