@<TRIPOS>MOLECULE
2,3,5,7,9
 22 22 0 0 0
SMALL
GASTEIGER

@<TRIPOS>ATOM
      1 SI          4.6594   11.2343   10.7763 Si      1  UNL1        0.0000
      2 C           6.2892   10.5030   11.3873 C.3     1  UNL1        0.0000
      3 C           7.3407   11.2918   11.9757 C.3     1  UNL1        0.0000
      4 H           7.4212   12.3680   11.8896 H       1  UNL1        0.0000
      5 C           8.0443   10.4947   12.8911 C.2     1  UNL1        0.0000
      6 H           8.8219   10.8332   13.5591 H       1  UNL1        0.0000
      7 C           7.4877    9.2020   12.8737 C.2     1  UNL1        0.0000
      8 H           7.7849    8.3803   13.5083 H       1  UNL1        0.0000
      9 C           6.4234    9.1946   11.9637 C.3     1  UNL1        0.0000
     10 H           5.7123    8.3887   11.8383 H       1  UNL1        0.0000
     11 C           4.0052   12.4673   12.0737 C.3     1  UNL1        0.0000
     12 H           3.0173   12.8276   11.8050 H       1  UNL1        0.0000
     13 H           4.6547   13.3319   12.1658 H       1  UNL1        0.0000
     14 H           3.9339   12.0073   13.0543 H       1  UNL1        0.0000
     15 C           4.8744   12.1506    9.1087 C.3     1  UNL1        0.0000
     16 H           5.3920   11.5556    8.3613 H       1  UNL1        0.0000
     17 H           5.4420   13.0658    9.2454 H       1  UNL1        0.0000
     18 H           3.9098   12.4364    8.7008 H       1  UNL1        0.0000
     19 C           3.3895    9.8160   10.5766 C.3     1  UNL1        0.0000
     20 H           3.8078    8.9404   10.0896 H       1  UNL1        0.0000
     21 H           2.5301   10.1431   10.0004 H       1  UNL1        0.0000
     22 H           3.0219    9.5025   11.5479 H       1  UNL1        0.0000
@<TRIPOS>BOND
     1    16    15    1
     2    18    15    1
     3    15    17    1
     4    15     1    1
     5    21    19    1
     6    20    19    1
     7    19     1    1
     8    19    22    1
     9     1     2    1
    10     1    11    1
    11     2     9    1
    12     2     3    1
    13    12    11    1
    14    10     9    1
    15     4     3    1
    16     9     7    1
    17     3     5    1
    18    11    13    1
    19    11    14    1
    20     7     5    2
    21     7     8    1
    22     5     6    1
