@<TRIPOS>MOLECULE
1,3,5,7,9
 10 10 0 0 0
SMALL
GASTEIGER

@<TRIPOS>ATOM
      1 C           2.8926    2.5548    1.9554 C.2     1  UNL1       -0.0837
      2 H           3.7635    1.9798    2.2419 H       1  UNL1        0.0572
      3 C           1.8826    2.1255    1.0732 C.2     1  UNL1       -0.0837
      4 H           1.8360    1.1589    0.5886 H       1  UNL1        0.0572
      5 C           1.0119    3.2033    0.8442 C.3     1  UNL1       -0.0127
      6 H           0.2151    3.2172    0.1094 H       1  UNL1        0.0352
      7 C           1.4828    4.3144    1.5875 C.3     1  UNL1       -0.0235
      8 H           1.1298    5.3369    1.4952 H       1  UNL1        0.0315
      9 C           2.6583    3.9068    2.2673 C.3     1  UNL1       -0.0127
     10 H           3.3320    4.5561    2.8113 H       1  UNL1        0.0352
@<TRIPOS>BOND
     1     6     5    1
     2     4     3    1
     3     5     3    1
     4     5     7    1
     5     3     1    2
     6     8     7    1
     7     7     9    1
     8     1     2    1
     9     1     9    1
    10     9    10    1
