@<TRIPOS>MOLECULE
1,3,5,7,9
 10 10 0 0 0
SMALL
GASTEIGER

@<TRIPOS>ATOM
      1 C          -1.8159    2.2882    4.0160 C.2     1  UNL1       -0.0654
      2 H          -2.1366    1.3747    4.5028 H       1  UNL1        0.0615
      3 C          -1.8492    2.5318    2.6272 C.2     1  UNL1       -0.0654
      4 H          -2.2012    1.8380    1.8729 H       1  UNL1        0.0615
      5 C          -1.4969    3.8773    2.4136 C.2     1  UNL1       -0.0763
      6 H          -1.5826    4.4131    1.4757 H       1  UNL1        0.0578
      7 C          -1.2150    4.4626    3.6683 C.3     1  UNL1        0.0054
      8 H          -1.0615    5.5187    3.8510 H       1  UNL1        0.0394
      9 C          -1.4196    3.4748    4.6614 C.2     1  UNL1       -0.0763
     10 H          -1.3970    3.6398    5.7314 H       1  UNL1        0.0578
@<TRIPOS>BOND
     1     6     5    1
     2     4     3    1
     3     5     3    2
     4     5     7    1
     5     3     1    1
     6     7     8    1
     7     7     9    1
     8     1     2    1
     9     1     9    2
    10     9    10    1
