@<TRIPOS>MOLECULE
1,3,5,7,9
 10 10 0 0 0
SMALL
GASTEIGER

@<TRIPOS>ATOM
      1 C           7.7323    3.2317   12.3101 C.2     1  UNL1       -0.0763
      2 H           7.4521    2.3125   11.8119 H       1  UNL1        0.0578
      3 C           8.8477    4.0272   11.9920 C.2     1  UNL1       -0.0654
      4 H           9.5969    3.8025   11.2454 H       1  UNL1        0.0615
      5 C           8.7368    5.2396   12.7061 C.2     1  UNL1       -0.0654
      6 H           9.3513    6.1174   12.5551 H       1  UNL1        0.0615
      7 C           7.5453    5.1928   13.4627 C.2     1  UNL1       -0.0763
      8 H           7.1071    6.0176   14.0063 H       1  UNL1        0.0578
      9 C           6.9290    3.9457   13.2257 C.3     1  UNL1        0.0054
     10 H           5.9399    3.6567   13.5602 H       1  UNL1        0.0394
@<TRIPOS>BOND
     1     4     3    1
     2     2     1    1
     3     3     1    2
     4     3     5    1
     5     1     9    1
     6     6     5    1
     7     5     7    2
     8     9     7    1
     9     9    10    1
    10     7     8    1
