@<TRIPOS>MOLECULE
1,3,5,7,9
 10 10 0 0 0
SMALL
GASTEIGER

@<TRIPOS>ATOM
      1 C           5.0972    1.6620    7.2804 C.2     1  UNL1       -0.0763
      2 H           4.8056    1.0636    8.1337 H       1  UNL1        0.0578
      3 C           5.9385    1.2401    6.2361 C.2     1  UNL1       -0.0654
      4 H           6.4204    0.2740    6.1654 H       1  UNL1        0.0615
      5 C           5.9340    2.2387    5.2384 C.2     1  UNL1       -0.0654
      6 H           6.3586    2.1335    4.2464 H       1  UNL1        0.0615
      7 C           5.0526    3.2606    5.6510 C.2     1  UNL1       -0.0763
      8 H           4.7326    4.0978    5.0481 H       1  UNL1        0.0578
      9 C           4.5438    2.9121    6.9171 C.3     1  UNL1        0.0054
     10 H           3.7464    3.4276    7.4341 H       1  UNL1        0.0394
@<TRIPOS>BOND
     1     6     5    1
     2     8     7    1
     3     5     7    2
     4     5     3    1
     5     7     9    1
     6     4     3    1
     7     3     1    2
     8     9     1    1
     9     9    10    1
    10     1     2    1
