@<TRIPOS>MOLECULE
1,2,3,4,5
 25 25 0 0 0
SMALL
GASTEIGER

@<TRIPOS>ATOM
      1 C          11.6184    3.7739    6.3576 C.2     1  UNL1       -0.0477
      2 C          11.5180    4.1287    4.9757 C.2     1  UNL1       -0.0477
      3 C          11.6547    5.5334    4.8729 C.2     1  UNL1       -0.0584
      4 C          11.8069    6.0522    6.1906 C.3     1  UNL1        0.0231
      5 C          11.8397    4.9603    7.0952 C.2     1  UNL1       -0.0584
      6 C          11.7359    2.3719    6.8902 C.3     1  UNL1       -0.0395
      7 H          11.1413    1.6725    6.3031 H       1  UNL1        0.0278
      8 H          11.4043    2.3157    7.9264 H       1  UNL1        0.0278
      9 H          12.7779    2.0418    6.8496 H       1  UNL1        0.0278
     10 C          11.4541    3.1727    3.8187 C.3     1  UNL1       -0.0395
     11 H          10.7927    3.5483    3.0372 H       1  UNL1        0.0278
     12 H          11.0926    2.1954    4.1372 H       1  UNL1        0.0278
     13 H          12.4487    3.0369    3.3849 H       1  UNL1        0.0278
     14 C          11.7433    6.3129    3.5918 C.3     1  UNL1       -0.0424
     15 H          12.7613    6.2686    3.1943 H       1  UNL1        0.0275
     16 H          11.4921    7.3617    3.7511 H       1  UNL1        0.0275
     17 H          11.0683    5.9069    2.8383 H       1  UNL1        0.0275
     18 C          12.0209    7.4911    6.5697 C.3     1  UNL1       -0.0510
     19 H          11.6121    7.6846    7.5628 H       1  UNL1        0.0242
     20 H          11.5358    8.1623    5.8581 H       1  UNL1        0.0242
     21 H          13.0876    7.7339    6.5875 H       1  UNL1        0.0242
     22 C          12.1039    5.0767    8.5693 C.3     1  UNL1       -0.0424
     23 H          12.9757    5.7088    8.7458 H       1  UNL1        0.0275
     24 H          12.2991    4.0994    9.0059 H       1  UNL1        0.0275
     25 H          11.2485    5.5214    9.0849 H       1  UNL1        0.0275
@<TRIPOS>BOND
     1    17    14    1
     2    11    10    1
     3    15    14    1
     4    13    10    1
     5    14    16    1
     6    14     3    1
     7    10    12    1
     8    10     2    1
     9     3     2    2
    10     3     4    1
    11     2     1    1
    12    20    18    1
    13     4    18    1
    14     4     5    1
    15     7     6    1
    16     1     6    1
    17     1     5    2
    18    18    21    1
    19    18    19    1
    20     9     6    1
    21     6     8    1
    22     5    22    1
    23    22    23    1
    24    22    24    1
    25    22    25    1
