@<TRIPOS>MOLECULE
1,2,3,4,5
 22 22 0 0 0
SMALL
GASTEIGER

@<TRIPOS>ATOM
      1 C           6.6123    3.4367   11.6389 C.2     1  UNL1       -0.0615
      2 C           5.7850    2.2998   11.4340 C.2     1  UNL1       -0.0480
      3 C           5.2961    1.8760   12.6999 C.2     1  UNL1       -0.0480
      4 C           5.8134    2.7565   13.6897 C.2     1  UNL1       -0.0615
      5 C           6.6353    3.7061   13.0272 C.3     1  UNL1        0.0119
      6 H           7.0378    4.6045   13.4797 H       1  UNL1        0.0400
      7 C           7.2407    4.2827   10.5634 C.3     1  UNL1       -0.0426
      8 H           8.0324    3.7412   10.0350 H       1  UNL1        0.0275
      9 H           7.6600    5.1914   10.9942 H       1  UNL1        0.0275
     10 H           6.4883    4.5758    9.8295 H       1  UNL1        0.0275
     11 C           5.3552    1.7424   10.1045 C.3     1  UNL1       -0.0395
     12 H           5.2315    0.6601   10.1538 H       1  UNL1        0.0278
     13 H           6.0882    1.9701    9.3324 H       1  UNL1        0.0278
     14 H           4.3970    2.1757    9.8062 H       1  UNL1        0.0278
     15 C           4.2375    0.8278   12.9036 C.3     1  UNL1       -0.0395
     16 H           3.2488    1.2480   12.7022 H       1  UNL1        0.0278
     17 H           4.2439    0.4537   13.9251 H       1  UNL1        0.0278
     18 H           4.3886   -0.0160   12.2304 H       1  UNL1        0.0278
     19 C           5.2524    2.9411   15.0758 C.3     1  UNL1       -0.0426
     20 H           6.0085    3.2616   15.7914 H       1  UNL1        0.0275
     21 H           4.7854    2.0313   15.4446 H       1  UNL1        0.0275
     22 H           4.4805    3.7154   15.0493 H       1  UNL1        0.0275
@<TRIPOS>BOND
     1    13    11    1
     2    14    11    1
     3    10     7    1
     4     8     7    1
     5    11    12    1
     6    11     2    1
     7     7     9    1
     8     7     1    1
     9     2     1    2
    10     2     3    1
    11     1     5    1
    12    18    15    1
    13     3    15    1
    14     3     4    2
    15    16    15    1
    16    15    17    1
    17     5     6    1
    18     5     4    1
    19     4    19    1
    20    22    19    1
    21    19    21    1
    22    19    20    1
