@<TRIPOS>MOLECULE
1,2,3,4,5
 25 25 0 0 0
SMALL
GASTEIGER

@<TRIPOS>ATOM
      1 C           6.5183    1.8829    3.3006 C.2     1  UNL1       -0.0584
      2 C           6.0004    2.5713    4.4303 C.3     1  UNL1        0.0231
      3 C           5.8968    1.6393    5.4999 C.2     1  UNL1       -0.0584
      4 C           6.3802    0.3789    5.0303 C.2     1  UNL1       -0.0477
      5 C           6.7604    0.5383    3.6678 C.2     1  UNL1       -0.0477
      6 C           6.5806    2.3919    1.8879 C.3     1  UNL1       -0.0424
      7 H           7.4959    2.0646    1.3947 H       1  UNL1        0.0275
      8 H           6.5412    3.4775    1.8618 H       1  UNL1        0.0275
      9 H           5.7308    2.0036    1.3191 H       1  UNL1        0.0275
     10 C           5.5425    4.0057    4.4002 C.3     1  UNL1       -0.0510
     11 H           6.3616    4.6667    4.1010 H       1  UNL1        0.0242
     12 H           5.1682    4.3260    5.3707 H       1  UNL1        0.0242
     13 H           4.7317    4.1268    3.6787 H       1  UNL1        0.0242
     14 C           5.0222    1.7681    6.7197 C.3     1  UNL1       -0.0424
     15 H           4.1181    1.1693    6.5756 H       1  UNL1        0.0275
     16 H           4.7091    2.7958    6.8817 H       1  UNL1        0.0275
     17 H           5.5060    1.4049    7.6268 H       1  UNL1        0.0275
     18 C           6.0515   -0.9313    5.6948 C.3     1  UNL1       -0.0395
     19 H           6.1253   -0.8713    6.7797 H       1  UNL1        0.0278
     20 H           6.6999   -1.7299    5.3452 H       1  UNL1        0.0278
     21 H           5.0203   -1.2085    5.4545 H       1  UNL1        0.0278
     22 C           7.1416   -0.5309    2.6834 C.3     1  UNL1       -0.0395
     23 H           6.4204   -0.5493    1.8639 H       1  UNL1        0.0278
     24 H           7.1443   -1.5101    3.1509 H       1  UNL1        0.0278
     25 H           8.1307   -0.3455    2.2570 H       1  UNL1        0.0278
@<TRIPOS>BOND
     1     9     6    1
     2     7     6    1
     3     8     6    1
     4    23    22    1
     5     6     1    1
     6    25    22    1
     7    22    24    1
     8    22     5    1
     9     1     5    2
    10     1     2    1
    11     5     4    1
    12    13    10    1
    13    11    10    1
    14    10     2    1
    15    10    12    1
    16     2     3    1
    17     4     3    2
    18     4    18    1
    19    20    18    1
    20    21    18    1
    21     3    14    1
    22    18    19    1
    23    15    14    1
    24    14    16    1
    25    14    17    1
