@<TRIPOS>MOLECULE
1,2,3,4,5
 25 25 0 0 0
SMALL
GASTEIGER

@<TRIPOS>ATOM
      1 C           8.7707    2.2404    7.5908 C.2     1  UNL1       -0.0584
      2 C           8.1234    3.4572    7.2267 C.2     1  UNL1       -0.0477
      3 C           8.9695    4.1620    6.3353 C.2     1  UNL1       -0.0477
      4 C          10.1462    3.3910    6.1458 C.2     1  UNL1       -0.0584
      5 C          10.0324    2.2064    6.9228 C.3     1  UNL1        0.0231
      6 C           8.3732    1.4022    8.7812 C.3     1  UNL1       -0.0424
      7 H           7.4118    0.8989    8.6530 H       1  UNL1        0.0275
      8 H           8.2920    2.0382    9.6659 H       1  UNL1        0.0275
      9 H           9.1248    0.6457    8.9918 H       1  UNL1        0.0275
     10 C           6.9829    4.0920    7.9773 C.3     1  UNL1       -0.0395
     11 H           7.3805    4.8501    8.6578 H       1  UNL1        0.0278
     12 H           6.4435    3.3640    8.5768 H       1  UNL1        0.0278
     13 H           6.2781    4.5929    7.3149 H       1  UNL1        0.0278
     14 C           8.7605    5.5761    5.8685 C.3     1  UNL1       -0.0395
     15 H           9.3748    6.2594    6.4596 H       1  UNL1        0.0278
     16 H           7.7211    5.8762    5.9850 H       1  UNL1        0.0278
     17 H           9.0399    5.6876    4.8211 H       1  UNL1        0.0278
     18 C          11.3850    3.7981    5.3979 C.3     1  UNL1       -0.0424
     19 H          12.1614    4.1176    6.0978 H       1  UNL1        0.0275
     20 H          11.1729    4.6235    4.7232 H       1  UNL1        0.0275
     21 H          11.7796    2.9645    4.8124 H       1  UNL1        0.0275
     22 C          11.2141    1.3236    7.2163 C.3     1  UNL1       -0.0510
     23 H          11.7471    1.0702    6.2999 H       1  UNL1        0.0242
     24 H          10.9255    0.4050    7.7168 H       1  UNL1        0.0242
     25 H          11.9101    1.8568    7.8702 H       1  UNL1        0.0242
@<TRIPOS>BOND
     1    20    18    1
     2    21    18    1
     3    17    14    1
     4    18    19    1
     5    18     4    1
     6    14    16    1
     7    14     3    1
     8    14    15    1
     9     4     3    2
    10     4     5    1
    11    23    22    1
    12     3     2    1
    13     5    22    1
    14     5     1    1
    15    22    24    1
    16    22    25    1
    17     2     1    2
    18     2    10    1
    19    13    10    1
    20     1     6    1
    21    10    12    1
    22    10    11    1
    23     7     6    1
    24     6     9    1
    25     6     8    1
