@<TRIPOS>MOLECULE
1,2,3,4,5
 22 22 0 0 0
SMALL
GASTEIGER

@<TRIPOS>ATOM
      1 C          10.1529    0.7743   13.1555 C.2     1  UNL1       -0.0615
      2 C          10.3575    2.0314   12.5362 C.2     1  UNL1       -0.0480
      3 C           9.8100    3.0332   13.3783 C.2     1  UNL1       -0.0480
      4 C           9.2782    2.4036   14.5315 C.2     1  UNL1       -0.0615
      5 C           9.4837    1.0026   14.3854 C.3     1  UNL1        0.0119
      6 H           9.3557    0.2634   15.1640 H       1  UNL1        0.0400
      7 C          10.5944   -0.5633   12.6281 C.3     1  UNL1       -0.0426
      8 H          11.6841   -0.6284   12.6017 H       1  UNL1        0.0275
      9 H          10.2181   -0.7242   11.6137 H       1  UNL1        0.0275
     10 H          10.2164   -1.3626   13.2641 H       1  UNL1        0.0275
     11 C          11.2018    2.3033   11.3226 C.3     1  UNL1       -0.0395
     12 H          10.7474    3.0561   10.6779 H       1  UNL1        0.0278
     13 H          11.3479    1.3971   10.7400 H       1  UNL1        0.0278
     14 H          12.1829    2.6753   11.6294 H       1  UNL1        0.0278
     15 C          10.0101    4.5099   13.1739 C.3     1  UNL1       -0.0395
     16 H          11.0572    4.7703   13.3477 H       1  UNL1        0.0278
     17 H           9.4077    5.0945   13.8668 H       1  UNL1        0.0278
     18 H           9.7652    4.8081   12.1538 H       1  UNL1        0.0278
     19 C           8.8977    3.1015   15.8110 C.3     1  UNL1       -0.0426
     20 H           8.4248    2.4114   16.5084 H       1  UNL1        0.0275
     21 H           8.2273    3.9455   15.6416 H       1  UNL1        0.0275
     22 H           9.7951    3.4952   16.2960 H       1  UNL1        0.0275
@<TRIPOS>BOND
     1    12    11    1
     2    13    11    1
     3    11    14    1
     4    11     2    1
     5     9     7    1
     6    18    15    1
     7     2     1    2
     8     2     3    1
     9     8     7    1
    10     7     1    1
    11     7    10    1
    12     1     5    1
    13    15    16    1
    14    15     3    1
    15    15    17    1
    16     3     4    2
    17     5     4    1
    18     5     6    1
    19     4    19    1
    20    21    19    1
    21    19    22    1
    22    19    20    1
