@<TRIPOS>MOLECULE
1,2,3,4,5
 22 22 0 0 0
SMALL
GASTEIGER

@<TRIPOS>ATOM
      1 C           7.7116    2.8948    3.5254 C.2     1  UNL1       -0.0615
      2 C           7.4806    4.1970    3.0039 C.2     1  UNL1       -0.0480
      3 C           8.5173    5.0492    3.4716 C.2     1  UNL1       -0.0480
      4 C           9.3970    4.2739    4.2743 C.2     1  UNL1       -0.0615
      5 C           8.9031    2.9489    4.2952 C.3     1  UNL1        0.0119
      6 H           9.2552    2.1637    4.9534 H       1  UNL1        0.0400
      7 C           6.6800    1.8019    3.6325 C.3     1  UNL1       -0.0426
      8 H           6.1536    1.8986    4.5863 H       1  UNL1        0.0275
      9 H           7.1230    0.8073    3.6061 H       1  UNL1        0.0275
     10 H           5.9354    1.8739    2.8436 H       1  UNL1        0.0275
     11 C           6.2464    4.6602    2.2805 C.3     1  UNL1       -0.0395
     12 H           5.7759    3.8424    1.7389 H       1  UNL1        0.0278
     13 H           6.4855    5.4482    1.5665 H       1  UNL1        0.0278
     14 H           5.5192    5.0581    2.9930 H       1  UNL1        0.0278
     15 C           8.5685    6.5416    3.2915 C.3     1  UNL1       -0.0395
     16 H           7.9394    7.0340    4.0378 H       1  UNL1        0.0278
     17 H           8.2060    6.8302    2.3046 H       1  UNL1        0.0278
     18 H           9.5876    6.9068    3.4068 H       1  UNL1        0.0278
     19 C          10.5663    4.7968    5.0663 C.3     1  UNL1       -0.0426
     20 H          11.3675    5.1523    4.4101 H       1  UNL1        0.0275
     21 H          10.9599    4.0184    5.7192 H       1  UNL1        0.0275
     22 H          10.2514    5.6326    5.6934 H       1  UNL1        0.0275
@<TRIPOS>BOND
     1    13    11    1
     2    12    11    1
     3    11    14    1
     4    11     2    1
     5    17    15    1
     6    10     7    1
     7     2     3    1
     8     2     1    2
     9    15    18    1
    10    15     3    1
    11    15    16    1
    12     3     4    2
    13     1     7    1
    14     1     5    1
    15     9     7    1
    16     7     8    1
    17     4     5    1
    18     4    19    1
    19     5     6    1
    20    20    19    1
    21    19    22    1
    22    19    21    1
