@<TRIPOS>MOLECULE
1,2,3,4,5
 22 22 0 0 0
SMALL
GASTEIGER

@<TRIPOS>ATOM
      1 C          10.3653    0.9853    2.0663 C.3     1  UNL1        0.0022
      2 C          11.4363    1.6541    2.7088 C.2     1  UNL1       -0.0661
      3 C          12.0800    2.4821    1.7542 C.2     1  UNL1       -0.0661
      4 C          11.4023    2.3419    0.5185 C.3     1  UNL1        0.0022
      5 C          10.3404    1.4213    0.7124 C.3     1  UNL1       -0.0168
      6 C           9.6270   -0.2078    2.6133 C.3     1  UNL1       -0.0547
      7 H           8.7790   -0.4682    1.9813 H       1  UNL1        0.0238
      8 H           9.2703   -0.0446    3.6314 H       1  UNL1        0.0238
      9 H          10.2944   -1.0735    2.6409 H       1  UNL1        0.0238
     10 C          11.9823    1.3663    4.0806 C.3     1  UNL1       -0.0430
     11 H          12.8911    0.7645    4.0004 H       1  UNL1        0.0275
     12 H          11.2710    0.8061    4.6846 H       1  UNL1        0.0275
     13 H          12.2450    2.2855    4.6057 H       1  UNL1        0.0275
     14 C          13.3809    3.1988    1.9838 C.3     1  UNL1       -0.0430
     15 H          13.3696    3.7575    2.9202 H       1  UNL1        0.0275
     16 H          13.5832    3.8915    1.1711 H       1  UNL1        0.0275
     17 H          14.2003    2.4767    2.0340 H       1  UNL1        0.0275
     18 C          11.7538    3.0246   -0.7755 C.3     1  UNL1       -0.0547
     19 H          11.8036    4.1093   -0.6395 H       1  UNL1        0.0238
     20 H          11.0010    2.8080   -1.5323 H       1  UNL1        0.0238
     21 H          12.7228    2.6817   -1.1442 H       1  UNL1        0.0238
     22 H           9.7605    0.9723   -0.0818 H       1  UNL1        0.0321
@<TRIPOS>BOND
     1    20    18    1
     2    21    18    1
     3    18    19    1
     4    18     4    1
     5    22     5    1
     6     4     5    1
     7     4     3    1
     8     5     1    1
     9    16    14    1
    10     3    14    1
    11     3     2    2
    12     7     6    1
    13    14    17    1
    14    14    15    1
    15     1     6    1
    16     1     2    1
    17     6     9    1
    18     6     8    1
    19     2    10    1
    20    11    10    1
    21    10    13    1
    22    10    12    1
