@<TRIPOS>MOLECULE
1,3,5,7,9
 10 10 0 0 0
SMALL
GASTEIGER

@<TRIPOS>ATOM
      1 C           7.0264    6.0538    1.1884 C.3     1  UNL1       -0.0235
      2 H           6.7945    5.0422    1.4808 H       1  UNL1        0.0315
      3 C           8.2678    6.7110    1.3839 C.3     1  UNL1       -0.0127
      4 H           9.1449    6.2841    1.8375 H       1  UNL1        0.0352
      5 C           8.2201    7.9444    0.6916 C.2     1  UNL1       -0.0837
      6 H           9.0526    8.6072    0.5428 H       1  UNL1        0.0572
      7 C           6.9393    8.0737    0.1059 C.2     1  UNL1       -0.0837
      8 H           6.6318    8.8522   -0.5698 H       1  UNL1        0.0572
      9 C           6.2053    6.8974    0.3998 C.3     1  UNL1       -0.0127
     10 H           5.2403    6.6396   -0.0059 H       1  UNL1        0.0352
@<TRIPOS>BOND
     1     8     7    1
     2    10     9    1
     3     7     9    1
     4     7     5    2
     5     9     1    1
     6     6     5    1
     7     5     3    1
     8     1     3    1
     9     1     2    1
    10     3     4    1
