@<TRIPOS>MOLECULE
2,3,4,5,6
 22 22 0 0 0
SMALL
GASTEIGER

@<TRIPOS>ATOM
      1 SI          9.4952    0.7896    7.1501 Si      1  UNL1        0.0000
      2 C           7.7330    1.2024    7.6805 C.3     1  UNL1        0.0000
      3 C           7.2268    1.1745    9.0037 C.2     1  UNL1        0.0000
      4 C           5.8259    1.3416    8.9585 C.2     1  UNL1        0.0000
      5 C           5.4516    1.4838    7.6030 C.2     1  UNL1        0.0000
      6 C           6.6242    1.4033    6.8214 C.2     1  UNL1        0.0000
      7 C          10.7222    1.2821    8.5268 C.3     1  UNL1        0.0000
      8 C           9.5657   -1.1102    6.9132 C.3     1  UNL1        0.0000
      9 C           9.8890    1.6296    5.4818 C.3     1  UNL1        0.0000
     10 H           7.8092    0.9321    9.8864 H       1  UNL1        0.0000
     11 H           5.1401    1.2305    9.7887 H       1  UNL1        0.0000
     12 H           4.4346    1.4990    7.2328 H       1  UNL1        0.0000
     13 H           6.6635    1.3663    5.7378 H       1  UNL1        0.0000
     14 H          11.7474    1.1356    8.2016 H       1  UNL1        0.0000
     15 H          10.5772    0.6845    9.4227 H       1  UNL1        0.0000
     16 H          10.6061    2.3280    8.7957 H       1  UNL1        0.0000
     17 H           8.8707   -1.4445    6.1493 H       1  UNL1        0.0000
     18 H           9.3213   -1.6374    7.8300 H       1  UNL1        0.0000
     19 H          10.5603   -1.4201    6.6109 H       1  UNL1        0.0000
     20 H           9.2707    1.2340    4.6803 H       1  UNL1        0.0000
     21 H          10.9253    1.4674    5.2023 H       1  UNL1        0.0000
     22 H           9.7244    2.7018    5.5374 H       1  UNL1        0.0000
@<TRIPOS>BOND
     1    20     9    1
     2    21     9    1
     3     9    22    1
     4     9     1    1
     5    13     6    1
     6    17     8    1
     7    19     8    1
     8     6     5    2
     9     6     2    1
    10     8     1    1
    11     8    18    1
    12     1     2    1
    13     1     7    1
    14    12     5    1
    15     5     4    1
    16     2     3    1
    17    14     7    1
    18     7    16    1
    19     7    15    1
    20     4     3    2
    21     4    11    1
    22     3    10    1
