@<TRIPOS>MOLECULE
5,6,7,8,9
 56 56 0 0 0
SMALL
GASTEIGER

@<TRIPOS>ATOM
      1 SI          0.1569    1.1606    7.2008 Si      1  UNL1        0.0000
      2 SI          0.1019    0.7441    1.3383 Si      1  UNL1        0.0000
      3 N           1.4451    0.0330    7.4376 N.3     1  UNL1        0.0000
      4 N           1.3690   -0.4068    1.1407 N.3     1  UNL1        0.0000
      5 C           0.2122    1.6681    5.3832 C.2     1  UNL1        0.0000
      6 C           0.1516    0.7658    4.2890 C.3     1  UNL1        0.0000
      7 C           0.1877    1.4962    3.0718 C.2     1  UNL1        0.0000
      8 C           0.2831    2.8689    3.4251 C.2     1  UNL1        0.0000
      9 C           0.2975    2.9732    4.8310 C.2     1  UNL1        0.0000
     10 C           2.8842    0.2561    7.4093 C.3     1  UNL1        0.0000
     11 C           3.2291    1.3177    6.3689 C.3     1  UNL1        0.0000
     12 C           3.3760    0.7066    8.7908 C.3     1  UNL1        0.0000
     13 C           3.5570   -1.0674    7.0269 C.3     1  UNL1        0.0000
     14 C           0.1385    2.7534    8.2624 C.3     1  UNL1        0.0000
     15 C          -1.4407    0.1642    7.4770 C.3     1  UNL1        0.0000
     16 C           2.7890   -0.3497    1.4517 C.3     1  UNL1        0.0000
     17 C           3.2392    1.0993    1.6065 C.3     1  UNL1        0.0000
     18 C           3.5627   -1.0056    0.3021 C.3     1  UNL1        0.0000
     19 C           3.0557   -1.1102    2.7584 C.3     1  UNL1        0.0000
     20 C           0.1105    2.1840    0.0814 C.3     1  UNL1        0.0000
     21 C          -1.5230   -0.2389    1.2126 C.3     1  UNL1        0.0000
     22 H           1.2308   -0.7423    8.0478 H       1  UNL1        0.0000
     23 H           1.1011   -1.3351    0.8540 H       1  UNL1        0.0000
     24 H           0.1772   -0.3150    4.3738 H       1  UNL1        0.0000
     25 H           0.4107    3.6880    2.7264 H       1  UNL1        0.0000
     26 H           0.4379    3.8866    5.3977 H       1  UNL1        0.0000
     27 H           2.8357    1.0342    5.3975 H       1  UNL1        0.0000
     28 H           4.3079    1.4256    6.2936 H       1  UNL1        0.0000
     29 H           2.8026    2.2763    6.6472 H       1  UNL1        0.0000
     30 H           3.1487   -0.0498    9.5388 H       1  UNL1        0.0000
     31 H           2.8801    1.6301    9.0756 H       1  UNL1        0.0000
     32 H           4.4502    0.8711    8.7806 H       1  UNL1        0.0000
     33 H           3.1908   -1.4030    6.0605 H       1  UNL1        0.0000
     34 H           3.3365   -1.8346    7.7658 H       1  UNL1        0.0000
     35 H           4.6351   -0.9449    6.9695 H       1  UNL1        0.0000
     36 H           1.0399    3.3466    8.1351 H       1  UNL1        0.0000
     37 H           0.0541    2.5152    9.3186 H       1  UNL1        0.0000
     38 H          -0.7094    3.3804    7.9995 H       1  UNL1        0.0000
     39 H          -1.4840   -0.7045    6.8247 H       1  UNL1        0.0000
     40 H          -2.3075    0.7834    7.2570 H       1  UNL1        0.0000
     41 H          -1.5372   -0.1830    8.5004 H       1  UNL1        0.0000
     42 H           3.0513    1.6457    0.6878 H       1  UNL1        0.0000
     43 H           4.3035    1.1353    1.8240 H       1  UNL1        0.0000
     44 H           2.7012    1.5795    2.4185 H       1  UNL1        0.0000
     45 H           3.3444   -0.4916   -0.6303 H       1  UNL1        0.0000
     46 H           3.2761   -2.0497    0.1962 H       1  UNL1        0.0000
     47 H           4.6328   -0.9597    0.4856 H       1  UNL1        0.0000
     48 H           2.7206   -2.1412    2.6714 H       1  UNL1        0.0000
     49 H           2.5141   -0.6363    3.5725 H       1  UNL1        0.0000
     50 H           4.1169   -1.1086    2.9932 H       1  UNL1        0.0000
     51 H           0.9970    2.8051    0.1638 H       1  UNL1        0.0000
     52 H          -0.7558    2.8227    0.2313 H       1  UNL1        0.0000
     53 H           0.0696    1.8087   -0.9362 H       1  UNL1        0.0000
     54 H          -1.5942   -0.9965    1.9895 H       1  UNL1        0.0000
     55 H          -1.6225   -0.7350    0.2529 H       1  UNL1        0.0000
     56 H          -2.3739    0.4289    1.3273 H       1  UNL1        0.0000
@<TRIPOS>BOND
     1    53    20    1
     2    45    18    1
     3    20    51    1
     4    20    52    1
     5    20     2    1
     6    46    18    1
     7    55    21    1
     8    18    47    1
     9    18    16    1
    10    42    17    1
    11    23     4    1
    12     4     2    1
    13     4    16    1
    14    21    56    1
    15    21     2    1
    16    21    54    1
    17     2     7    1
    18    16    17    1
    19    16    19    1
    20    17    43    1
    21    17    44    1
    22    48    19    1
    23    25     8    1
    24    19    50    1
    25    19    49    1
    26     7     8    2
    27     7     6    1
    28     8     9    1
    29     6    24    1
    30     6     5    1
    31     9     5    2
    32     9    26    1
    33     5     1    1
    34    27    11    1
    35    33    13    1
    36    28    11    1
    37    11    29    1
    38    11    10    1
    39    39    15    1
    40    35    13    1
    41    13    10    1
    42    13    34    1
    43     1     3    1
    44     1    15    1
    45     1    14    1
    46    40    15    1
    47    10     3    1
    48    10    12    1
    49     3    22    1
    50    15    41    1
    51    38    14    1
    52    36    14    1
    53    14    37    1
    54    32    12    1
    55    12    31    1
    56    12    30    1
