@<TRIPOS>MOLECULE
1,2,3,4,5
 25 25 0 0 0
SMALL
GASTEIGER

@<TRIPOS>ATOM
      1 C          -0.7386   -0.5308    2.8620 C.3     1  UNL1        0.0052
      2 C          -0.9848    0.7999    3.3565 C.3     1  UNL1       -0.0053
      3 C          -0.8714    0.7630    4.7769 C.3     1  UNL1        0.0052
      4 C          -0.5442   -0.5877    5.1529 C.2     1  UNL1       -0.0658
      5 C          -0.5061   -1.3862    3.9740 C.2     1  UNL1       -0.0658
      6 C          -1.1018   -0.9770    1.4762 C.3     1  UNL1       -0.0545
      7 C          -1.6111    1.8924    2.5427 C.3     1  UNL1       -0.0574
      8 C          -1.3573    1.8036    5.7386 C.3     1  UNL1       -0.0545
      9 C          -0.6655   -1.0967    6.5596 C.3     1  UNL1       -0.0430
     10 C          -0.5481   -2.8847    3.9334 C.3     1  UNL1       -0.0430
     11 H          -2.1900   -1.0592    1.4071 H       1  UNL1        0.0239
     12 H          -0.7736   -0.2605    0.7248 H       1  UNL1        0.0239
     13 H          -0.6754   -1.9485    1.2366 H       1  UNL1        0.0239
     14 H          -2.6682    1.6635    2.3840 H       1  UNL1        0.0236
     15 H          -1.5415    2.8514    3.0501 H       1  UNL1        0.0236
     16 H          -1.1348    1.9871    1.5678 H       1  UNL1        0.0236
     17 H          -2.3721    1.5513    6.0585 H       1  UNL1        0.0239
     18 H          -0.7235    1.8581    6.6215 H       1  UNL1        0.0239
     19 H          -1.3740    2.7903    5.2828 H       1  UNL1        0.0239
     20 H          -1.7215   -1.1010    6.8422 H       1  UNL1        0.0275
     21 H          -0.2884   -2.1126    6.6606 H       1  UNL1        0.0275
     22 H          -0.1357   -0.4566    7.2632 H       1  UNL1        0.0275
     23 H          -1.5846   -3.2104    4.0585 H       1  UNL1        0.0275
     24 H          -0.1919   -3.2704    2.9799 H       1  UNL1        0.0275
     25 H           0.0403   -3.3335    4.7311 H       1  UNL1        0.0275
@<TRIPOS>BOND
     1    12     6    1
     2    13     6    1
     3    11     6    1
     4     6     1    1
     5    16     7    1
     6    14     7    1
     7     7    15    1
     8     7     2    1
     9     1     2    1
    10     1     5    1
    11    24    10    1
    12     2     3    1
    13    10     5    1
    14    10    23    1
    15    10    25    1
    16     5     4    2
    17     3     4    1
    18     3     8    1
    19     4     9    1
    20    19     8    1
    21     8    17    1
    22     8    18    1
    23     9    21    1
    24     9    20    1
    25     9    22    1
