@<TRIPOS>MOLECULE
15,16,18,20,22
 43 43 0 0 0
SMALL
GASTEIGER

@<TRIPOS>ATOM
      1 SI          2.6454    1.2932    3.2295 Si      1  UNL1        0.0000
      2 F           6.0655    3.8767    5.2181 F       1  UNL1        0.0000
      3 F           4.2605    5.0419    5.4576 F       1  UNL1        0.0000
      4 F           3.8377    4.1223    7.9218 F       1  UNL1        0.0000
      5 F           5.4035    2.6428    7.7614 F       1  UNL1        0.0000
      6 F           7.3172    4.3807    7.6257 F       1  UNL1        0.0000
      7 F           6.0113    6.0473    7.1864 F       1  UNL1        0.0000
      8 F           4.8971    6.0325    9.5465 F       1  UNL1        0.0000
      9 F           5.6524    4.0733   10.0597 F       1  UNL1        0.0000
     10 F           8.1268    4.8592   10.2082 F       1  UNL1        0.0000
     11 F           7.7703    6.7148    9.1515 F       1  UNL1        0.0000
     12 F           6.2965    7.6968   11.1422 F       1  UNL1        0.0000
     13 F           8.0696    6.8158   11.9754 F       1  UNL1        0.0000
     14 F           6.1859    5.7970   12.1485 F       1  UNL1        0.0000
     15 C           1.0960    1.4616    4.2866 C.3     1  UNL1        0.0000
     16 C           0.6077    0.5329    5.2510 C.2     1  UNL1        0.0000
     17 H           1.0739   -0.4131    5.5045 H       1  UNL1        0.0000
     18 C          -0.5160    1.0937    5.8867 C.2     1  UNL1        0.0000
     19 H          -1.0454    0.6645    6.7285 H       1  UNL1        0.0000
     20 C          -0.7501    2.3679    5.3208 C.2     1  UNL1        0.0000
     21 H          -1.4650    3.0949    5.6832 H       1  UNL1        0.0000
     22 C           0.2458    2.6010    4.3493 C.2     1  UNL1        0.0000
     23 H           0.4234    3.5410    3.8404 H       1  UNL1        0.0000
     24 C           3.5213   -0.3715    3.5179 C.3     1  UNL1        0.0000
     25 H           3.7378   -0.5385    4.5691 H       1  UNL1        0.0000
     26 H           4.4627   -0.4103    2.9788 H       1  UNL1        0.0000
     27 H           2.9066   -1.1947    3.1692 H       1  UNL1        0.0000
     28 C           2.2272    1.6422    1.3981 C.3     1  UNL1        0.0000
     29 H           1.4486    0.9696    1.0459 H       1  UNL1        0.0000
     30 H           3.0987    1.4917    0.7692 H       1  UNL1        0.0000
     31 H           1.8980    2.6670    1.2465 H       1  UNL1        0.0000
     32 C           3.8028    2.7161    3.8176 C.3     1  UNL1        0.0000
     33 H           4.7699    2.6404    3.3256 H       1  UNL1        0.0000
     34 H           3.3852    3.6833    3.5419 H       1  UNL1        0.0000
     35 C           4.0056    2.6825    5.3265 C.3     1  UNL1        0.0000
     36 H           3.0458    2.7315    5.8436 H       1  UNL1        0.0000
     37 H           4.5230    1.7707    5.6234 H       1  UNL1        0.0000
     38 C           4.8408    3.8646    5.7953 C.3     1  UNL1        0.0000
     39 C           5.0287    3.8695    7.3443 C.3     1  UNL1        0.0000
     40 C           6.0945    4.8876    7.8551 C.3     1  UNL1        0.0000
     41 C           5.9349    5.1954    9.3793 C.3     1  UNL1        0.0000
     42 C           7.2215    5.8271    9.9953 C.3     1  UNL1        0.0000
     43 C           6.9317    6.5502   11.3487 C.3     1  UNL1        0.0000
@<TRIPOS>BOND
     1    30    28    1
     2    29    28    1
     3    31    28    1
     4    28     1    1
     5    26    24    1
     6    27    24    1
     7     1    24    1
     8     1    32    1
     9     1    15    1
    10    33    32    1
    11    24    25    1
    12    34    32    1
    13    32    35    1
    14    23    22    1
    15    15    22    1
    16    15    16    1
    17    22    20    2
    18     2    38    1
    19    16    17    1
    20    16    18    2
    21    20    21    1
    22    20    18    1
    23    35    37    1
    24    35    38    1
    25    35    36    1
    26     3    38    1
    27    38    39    1
    28    18    19    1
    29     7    40    1
    30    39     5    1
    31    39    40    1
    32    39     4    1
    33     6    40    1
    34    40    41    1
    35    11    42    1
    36    41     8    1
    37    41    42    1
    38    41     9    1
    39    42    10    1
    40    42    43    1
    41    12    43    1
    42    43    13    1
    43    43    14    1
