@<TRIPOS>MOLECULE
15,16,18,20,22
 43 43 0 0 0
SMALL
GASTEIGER

@<TRIPOS>ATOM
      1 SI         -4.6674    1.2929    3.6267 Si      1  UNL1        0.0000
      2 F          -8.0877    3.8764    1.6379 F       1  UNL1        0.0000
      3 F          -6.2827    5.0417    1.3986 F       1  UNL1        0.0000
      4 F          -5.8598    4.1222   -1.0656 F       1  UNL1        0.0000
      5 F          -7.4256    2.6427   -0.9054 F       1  UNL1        0.0000
      6 F          -9.3393    4.3805   -0.7697 F       1  UNL1        0.0000
      7 F          -8.0335    6.0471   -0.3301 F       1  UNL1        0.0000
      8 F          -6.9190    6.0326   -2.6901 F       1  UNL1        0.0000
      9 F          -7.6745    4.0734   -3.2036 F       1  UNL1        0.0000
     10 F         -10.1488    4.8595   -3.3523 F       1  UNL1        0.0000
     11 F          -9.7923    6.7149   -2.2951 F       1  UNL1        0.0000
     12 F          -8.3182    7.6972   -4.2856 F       1  UNL1        0.0000
     13 F         -10.0914    6.8165   -5.1191 F       1  UNL1        0.0000
     14 F          -8.2076    5.7976   -5.2923 F       1  UNL1        0.0000
     15 C          -3.1181    1.4610    2.5695 C.3     1  UNL1        0.0000
     16 C          -2.6300    0.5322    1.6052 C.2     1  UNL1        0.0000
     17 H          -3.0962   -0.4138    1.3519 H       1  UNL1        0.0000
     18 C          -1.5064    1.0928    0.9692 C.2     1  UNL1        0.0000
     19 H          -0.9770    0.6634    0.1274 H       1  UNL1        0.0000
     20 C          -1.2723    2.3672    1.5346 C.2     1  UNL1        0.0000
     21 H          -0.5574    3.0941    1.1720 H       1  UNL1        0.0000
     22 C          -2.2682    2.6006    2.5061 C.2     1  UNL1        0.0000
     23 H          -2.4459    3.5407    3.0145 H       1  UNL1        0.0000
     24 C          -5.5434   -0.3719    3.3388 C.3     1  UNL1        0.0000
     25 H          -5.7604   -0.5390    2.2877 H       1  UNL1        0.0000
     26 H          -6.4846   -0.4105    3.8783 H       1  UNL1        0.0000
     27 H          -4.9285   -1.1949    3.6874 H       1  UNL1        0.0000
     28 C          -4.2490    1.6422    5.4580 C.3     1  UNL1        0.0000
     29 H          -3.4706    0.9695    5.8102 H       1  UNL1        0.0000
     30 H          -5.1206    1.4919    6.0869 H       1  UNL1        0.0000
     31 H          -3.9197    2.6670    5.6094 H       1  UNL1        0.0000
     32 C          -5.8250    2.7157    3.0386 C.3     1  UNL1        0.0000
     33 H          -6.7922    2.6399    3.5304 H       1  UNL1        0.0000
     34 H          -5.4076    3.6829    3.3142 H       1  UNL1        0.0000
     35 C          -6.0278    2.6823    1.5297 C.3     1  UNL1        0.0000
     36 H          -5.0680    2.7313    1.0126 H       1  UNL1        0.0000
     37 H          -6.5452    1.7705    1.2327 H       1  UNL1        0.0000
     38 C          -6.8629    3.8643    1.0608 C.3     1  UNL1        0.0000
     39 C          -7.0508    3.8693   -0.4882 C.3     1  UNL1        0.0000
     40 C          -8.1166    4.8875   -0.9989 C.3     1  UNL1        0.0000
     41 C          -7.9569    5.1955   -2.5231 C.3     1  UNL1        0.0000
     42 C          -9.2434    5.8274   -3.1391 C.3     1  UNL1        0.0000
     43 C          -8.9534    6.5507   -4.4923 C.3     1  UNL1        0.0000
@<TRIPOS>BOND
     1    14    43    1
     2    13    43    1
     3    43    12    1
     4    43    42    1
     5    10    42    1
     6     9    41    1
     7    42    41    1
     8    42    11    1
     9     8    41    1
    10    41    40    1
    11     4    39    1
    12    40     6    1
    13    40    39    1
    14    40     7    1
    15     5    39    1
    16    39    38    1
    17    19    18    1
    18    18    20    1
    19    18    16    2
    20    36    35    1
    21    38     3    1
    22    38    35    1
    23    38     2    1
    24    21    20    1
    25    37    35    1
    26    17    16    1
    27    35    32    1
    28    20    22    2
    29    16    15    1
    30    25    24    1
    31    22    15    1
    32    22    23    1
    33    15     1    1
    34    32    34    1
    35    32    33    1
    36    32     1    1
    37    24     1    1
    38    24    27    1
    39    24    26    1
    40     1    28    1
    41    28    31    1
    42    28    29    1
    43    28    30    1
