@<TRIPOS>MOLECULE
7,8,10,12,14
 32 33 0 0 0
SMALL
GASTEIGER

@<TRIPOS>ATOM
      1 SI          1.1543   10.8414    4.4540 Si      1  UNL1        0.0000
      2 F           0.7949   13.5092    6.9494 F       1  UNL1        0.0000
      3 F           2.6025   14.0414    8.8936 F       1  UNL1        0.0000
      4 F           5.2782   13.9732    8.3350 F       1  UNL1        0.0000
      5 F           6.1072   13.4025    5.7918 F       1  UNL1        0.0000
      6 F           4.2909   12.9038    3.8523 F       1  UNL1        0.0000
      7 C           2.8471   10.0203    4.5116 C.3     1  UNL1        0.0000
      8 C           3.3901    9.2737    5.6012 C.2     1  UNL1        0.0000
      9 H           2.9021    9.1170    6.5570 H       1  UNL1        0.0000
     10 C           4.7121    8.9145    5.2816 C.2     1  UNL1        0.0000
     11 H           5.4236    8.4534    5.9547 H       1  UNL1        0.0000
     12 C           4.9994    9.4010    3.9842 C.2     1  UNL1        0.0000
     13 H           5.9659    9.3791    3.4962 H       1  UNL1        0.0000
     14 C           3.8626   10.0864    3.5160 C.2     1  UNL1        0.0000
     15 H           3.8088   10.6631    2.6001 H       1  UNL1        0.0000
     16 C           0.1264   10.4140    2.9065 C.3     1  UNL1        0.0000
     17 H           0.6833   10.5870    1.9889 H       1  UNL1        0.0000
     18 H          -0.7782   11.0130    2.8623 H       1  UNL1        0.0000
     19 H          -0.1691    9.3679    2.9193 H       1  UNL1        0.0000
     20 C           0.2197   10.5384    6.0868 C.3     1  UNL1        0.0000
     21 H          -0.6742   11.1516    6.1336 H       1  UNL1        0.0000
     22 H           0.8229   10.7843    6.9559 H       1  UNL1        0.0000
     23 H          -0.0852    9.5008    6.1749 H       1  UNL1        0.0000
     24 C           1.5105   12.7595    4.3271 C.3     1  UNL1        0.0000
     25 H           1.8878   12.9930    3.3363 H       1  UNL1        0.0000
     26 H           0.5722   13.2827    4.4782 H       1  UNL1        0.0000
     27 C           2.4908   13.1533    5.3533 C.ar    1  UNL1        0.0000
     28 C           2.1037   13.4681    6.6550 C.ar    1  UNL1        0.0000
     29 C           3.0211   13.7495    7.6577 C.ar    1  UNL1        0.0000
     30 C           4.3831   13.7187    7.3753 C.ar    1  UNL1        0.0000
     31 C           4.8023   13.4249    6.0821 C.ar    1  UNL1        0.0000
     32 C           3.8617   13.1542    5.0987 C.ar    1  UNL1        0.0000
@<TRIPOS>BOND
     1    17    16    1
     2    15    14    1
     3    18    16    1
     4    16    19    1
     5    16     1    1
     6    25    24    1
     7    13    12    1
     8    14    12    2
     9    14     7    1
    10     6    32    1
    11    12    10    1
    12    24     1    1
    13    24    26    1
    14    24    27    1
    15     1     7    1
    16     1    20    1
    17     7     8    1
    18    32    27   ar
    19    32    31   ar
    20    10     8    2
    21    10    11    1
    22    27    28   ar
    23     8     9    1
    24     5    31    1
    25    31    30   ar
    26    20    21    1
    27    20    23    1
    28    20    22    1
    29    28     2    1
    30    28    29   ar
    31    30    29   ar
    32    30     4    1
    33    29     3    1
