@<TRIPOS>MOLECULE
7,8,10,12,14
 32 33 0 0 0
SMALL
GASTEIGER

@<TRIPOS>ATOM
      1 SI          1.8635    4.9963    1.6024 Si      1  UNL1        0.0000
      2 F           2.6737    2.1829   -0.6489 F       1  UNL1        0.0000
      3 F           5.1640    1.1841   -1.0175 F       1  UNL1        0.0000
      4 F           6.8553    0.8978    1.1112 F       1  UNL1        0.0000
      5 F           5.9998    1.5962    3.6133 F       1  UNL1        0.0000
      6 F           3.5012    2.5664    3.9716 F       1  UNL1        0.0000
      7 C           3.1741    5.5485    2.8352 C.3     1  UNL1        0.0000
      8 C           4.4375    6.1376    2.5246 C.2     1  UNL1        0.0000
      9 H           4.8210    6.3045    1.5239 H       1  UNL1        0.0000
     10 C           5.1525    6.3179    3.7226 C.2     1  UNL1        0.0000
     11 H           6.1874    6.6252    3.8026 H       1  UNL1        0.0000
     12 C           4.3382    5.8761    4.7924 C.2     1  UNL1        0.0000
     13 H           4.6428    5.7848    5.8277 H       1  UNL1        0.0000
     14 C           3.1318    5.3952    4.2499 C.2     1  UNL1        0.0000
     15 H           2.3515    4.8868    4.8037 H       1  UNL1        0.0000
     16 C           0.1177    5.6847    1.9382 C.3     1  UNL1        0.0000
     17 H           0.0943    6.7617    1.7929 H       1  UNL1        0.0000
     18 H          -0.2094    5.4829    2.9551 H       1  UNL1        0.0000
     19 H          -0.6098    5.2440    1.2631 H       1  UNL1        0.0000
     20 C           2.4663    5.3073   -0.1786 C.3     1  UNL1        0.0000
     21 H           1.8026    4.8332   -0.8942 H       1  UNL1        0.0000
     22 H           3.4620    4.9068   -0.3483 H       1  UNL1        0.0000
     23 H           2.4905    6.3688   -0.4025 H       1  UNL1        0.0000
     24 C           1.7080    3.0641    1.8466 C.3     1  UNL1        0.0000
     25 H           1.3220    2.8553    2.8397 H       1  UNL1        0.0000
     26 H           1.0053    2.6890    1.1099 H       1  UNL1        0.0000
     27 C           3.0259    2.4322    1.6670 C.ar    1  UNL1        0.0000
     28 C           3.4896    2.0515    0.4085 C.ar    1  UNL1        0.0000
     29 C           4.7614    1.5331    0.2088 C.ar    1  UNL1        0.0000
     30 C           5.6230    1.3838    1.2909 C.ar    1  UNL1        0.0000
     31 C           5.1867    1.7424    2.5621 C.ar    1  UNL1        0.0000
     32 C           3.9076    2.2529    2.7321 C.ar    1  UNL1        0.0000
@<TRIPOS>BOND
     1     3    29    1
     2    21    20    1
     3     2    28    1
     4    23    20    1
     5    22    20    1
     6    20     1    1
     7    29    28   ar
     8    29    30   ar
     9    28    27   ar
    10    26    24    1
    11     4    30    1
    12    19    16    1
    13    30    31   ar
    14     9     8    1
    15     1    24    1
    16     1    16    1
    17     1     7    1
    18    27    24    1
    19    27    32   ar
    20    17    16    1
    21    24    25    1
    22    16    18    1
    23     8     7    1
    24     8    10    2
    25    31    32   ar
    26    31     5    1
    27    32     6    1
    28     7    14    1
    29    10    11    1
    30    10    12    1
    31    14    12    2
    32    14    15    1
    33    12    13    1
