@<TRIPOS>MOLECULE
1,2,3,4,5
 10 10 0 0 0
SMALL
GASTEIGER

@<TRIPOS>ATOM
      1 C           4.6944    4.5212    4.7133 C.2     1  UNL1       -0.0763
      2 C           3.4940    5.0948    4.2529 C.3     1  UNL1        0.0054
      3 C           3.2369    4.5977    2.9583 C.2     1  UNL1       -0.0763
      4 C           4.2772    3.7008    2.6240 C.2     1  UNL1       -0.0654
      5 C           5.1800    3.6584    3.7081 C.2     1  UNL1       -0.0654
      6 H           5.1154    4.6420    5.7033 H       1  UNL1        0.0578
      7 H           2.8262    5.7118    4.8394 H       1  UNL1        0.0394
      8 H           2.3288    4.7668    2.3897 H       1  UNL1        0.0578
      9 H           4.2980    3.0417    1.7624 H       1  UNL1        0.0615
     10 H           6.0030    2.9648    3.8216 H       1  UNL1        0.0615
@<TRIPOS>BOND
     1     9     4    1
     2     8     3    1
     3     4     3    2
     4     4     5    1
     5     3     2    1
     6     5    10    1
     7     5     1    2
     8     2     1    1
     9     2     7    1
    10     1     6    1
