@<TRIPOS>MOLECULE
1,2,3,4,5
 10 10 0 0 0
SMALL
GASTEIGER

@<TRIPOS>ATOM
      1 C           6.4958    6.6723    0.6097 C.2     1  UNL1       -0.0763
      2 C           5.4901    7.6412    0.8398 C.3     1  UNL1        0.0054
      3 C           4.2362    7.0244    0.6327 C.2     1  UNL1       -0.0763
      4 C           4.4660    5.6895    0.2547 C.2     1  UNL1       -0.0654
      5 C           5.8556    5.4638    0.2492 C.2     1  UNL1       -0.0654
      6 H           7.5608    6.8652    0.5527 H       1  UNL1        0.0578
      7 H           5.6561    8.6958    1.0183 H       1  UNL1        0.0394
      8 H           3.2755    7.5215    0.6475 H       1  UNL1        0.0578
      9 H           3.7125    4.9950   -0.0951 H       1  UNL1        0.0615
     10 H           6.3456    4.5777   -0.1358 H       1  UNL1        0.0615
@<TRIPOS>BOND
     1    10     5    1
     2     9     4    1
     3     5     4    1
     4     5     1    2
     5     4     3    2
     6     6     1    1
     7     1     2    1
     8     3     8    1
     9     3     2    1
    10     2     7    1
