@<TRIPOS>MOLECULE
1,2,3,4,5
 13 13 0 0 0
SMALL
GASTEIGER

@<TRIPOS>ATOM
      1 C           4.1599    2.2513    2.1840 C.2     1  UNL1       -0.0650
      2 C           4.2266    2.3231    0.7693 C.2     1  UNL1       -0.0625
      3 C           4.3718    3.6816    0.4041 C.2     1  UNL1       -0.0651
      4 C           4.4191    4.4486    1.5821 C.2     1  UNL1       -0.0761
      5 C           4.2976    3.5665    2.6824 C.3     1  UNL1        0.0084
      6 C           3.7992    1.0350    2.9903 C.3     1  UNL1       -0.0429
      7 H           4.0620    1.4916    0.0924 H       1  UNL1        0.0617
      8 H           4.2938    4.0812   -0.5992 H       1  UNL1        0.0615
      9 H           4.4230    5.5294    1.6327 H       1  UNL1        0.0578
     10 H           4.1773    3.8561    3.7198 H       1  UNL1        0.0397
     11 H           4.0670    1.1699    4.0382 H       1  UNL1        0.0275
     12 H           4.2986    0.1470    2.6037 H       1  UNL1        0.0275
     13 H           2.7211    0.8644    2.9388 H       1  UNL1        0.0275
@<TRIPOS>BOND
     1     8     3    1
     2     7     2    1
     3     3     2    1
     4     3     4    2
     5     2     1    2
     6     4     9    1
     7     4     5    1
     8     1     5    1
     9     1     6    1
    10    12     6    1
    11     5    10    1
    12    13     6    1
    13     6    11    1
