@<TRIPOS>MOLECULE
1,2,3,4,5
 13 13 0 0 0
SMALL
GASTEIGER

@<TRIPOS>ATOM
      1 C           8.7637    2.6136    0.4407 C.2     1  UNL1       -0.0650
      2 C           7.8324    2.2266   -0.5486 C.2     1  UNL1       -0.0625
      3 C           7.0558    3.3457   -0.8953 C.2     1  UNL1       -0.0651
      4 C           7.5062    4.4460   -0.1330 C.2     1  UNL1       -0.0761
      5 C           8.5724    3.9923    0.6870 C.3     1  UNL1        0.0084
      6 C           9.8377    1.7375    1.0227 C.3     1  UNL1       -0.0429
      7 H           7.7813    1.2500   -1.0115 H       1  UNL1        0.0617
      8 H           6.3568    3.3856   -1.7215 H       1  UNL1        0.0615
      9 H           7.1902    5.4741   -0.2636 H       1  UNL1        0.0578
     10 H           9.2282    4.6135    1.2848 H       1  UNL1        0.0397
     11 H           9.4060    0.8740    1.5351 H       1  UNL1        0.0275
     12 H          10.4502    2.2937    1.7316 H       1  UNL1        0.0275
     13 H          10.4880    1.3616    0.2308 H       1  UNL1        0.0275
@<TRIPOS>BOND
     1     8     3    1
     2     7     2    1
     3     3     2    1
     4     3     4    2
     5     2     1    2
     6     9     4    1
     7     4     5    1
     8    13     6    1
     9     1     5    1
    10     1     6    1
    11     5    10    1
    12     6    11    1
    13     6    12    1
