@<TRIPOS>MOLECULE
1,2,3,4,5
 10 10 0 0 0
SMALL
GASTEIGER

@<TRIPOS>ATOM
      1 C           6.4234   -0.1316    4.2046 C.2     1  UNL1       -0.0837
      2 C           7.6974    0.4464    4.4712 C.3     1  UNL1       -0.0127
      3 C           7.4944    1.8018    4.8739 C.3     1  UNL1       -0.0235
      4 C           6.0972    2.0102    4.9161 C.3     1  UNL1       -0.0127
      5 C           5.4469    0.8144    4.5165 C.2     1  UNL1       -0.0837
      6 H           6.2441   -1.0888    3.7375 H       1  UNL1        0.0572
      7 H           8.6471    0.0305    4.1502 H       1  UNL1        0.0352
      8 H           8.2579    2.5628    4.9303 H       1  UNL1        0.0315
      9 H           5.6132    2.9727    5.0184 H       1  UNL1        0.0352
     10 H           4.3857    0.6966    4.3541 H       1  UNL1        0.0572
@<TRIPOS>BOND
     1     6     1    1
     2     7     2    1
     3     1     2    1
     4     1     5    2
     5    10     5    1
     6     2     3    1
     7     5     4    1
     8     3     4    1
     9     3     8    1
    10     4     9    1
