@<TRIPOS>MOLECULE
1,2,3,4,5
 10 10 0 0 0
SMALL
GASTEIGER

@<TRIPOS>ATOM
      1 C           0.5062    4.5237    2.3992 C.3     1  UNL1        0.0054
      2 C          -0.0040    5.8099    2.7291 C.2     1  UNL1       -0.0763
      3 C           0.1402    5.9671    4.1265 C.2     1  UNL1       -0.0654
      4 C           0.7026    4.7822    4.6606 C.2     1  UNL1       -0.0654
      5 C           0.9607    3.9007    3.5925 C.2     1  UNL1       -0.0763
      6 H           0.3471    4.0133    1.4573 H       1  UNL1        0.0394
      7 H          -0.5642    6.4618    2.0758 H       1  UNL1        0.0578
      8 H          -0.2669    6.7819    4.7150 H       1  UNL1        0.0615
      9 H           0.7611    4.5388    5.7123 H       1  UNL1        0.0615
     10 H           1.2623    2.8683    3.6917 H       1  UNL1        0.0578
@<TRIPOS>BOND
     1     6     1    1
     2     7     2    1
     3     1     2    1
     4     1     5    1
     5     2     3    2
     6     5    10    1
     7     5     4    2
     8     3     4    1
     9     3     8    1
    10     4     9    1
