@<TRIPOS>MOLECULE
1,2,3,4,5
 10 10 0 0 0
SMALL
GASTEIGER

@<TRIPOS>ATOM
      1 C           5.1137   -0.1202    8.2426 C.2     1  UNL1       -0.0763
      2 C           4.5560    0.9449    7.5363 C.2     1  UNL1       -0.0654
      3 C           5.4075    2.0696    7.6734 C.2     1  UNL1       -0.0654
      4 C           6.5174    1.7042    8.4573 C.2     1  UNL1       -0.0763
      5 C           6.3610    0.3181    8.7826 C.3     1  UNL1        0.0054
      6 H           4.6297   -1.0646    8.4432 H       1  UNL1        0.0578
      7 H           3.5829    0.9481    7.0669 H       1  UNL1        0.0615
      8 H           5.1556    3.0815    7.3852 H       1  UNL1        0.0615
      9 H           7.2437    2.3745    8.8914 H       1  UNL1        0.0578
     10 H           6.9167   -0.1967    9.5601 H       1  UNL1        0.0394
@<TRIPOS>BOND
     1     7     2    1
     2     8     3    1
     3     2     3    1
     4     2     1    2
     5     3     4    2
     6     1     6    1
     7     1     5    1
     8     4     5    1
     9     4     9    1
    10     5    10    1
