@<TRIPOS>MOLECULE
1,2,3,4,5
 10 10 0 0 0
SMALL
GASTEIGER

@<TRIPOS>ATOM
      1 C           3.5703    4.3795    1.6536 C.2     1  UNL1       -0.0837
      2 C           2.7863    5.2871    0.8965 C.3     1  UNL1       -0.0127
      3 C           3.1977    6.6026    1.1973 C.3     1  UNL1       -0.0235
      4 C           4.2289    6.4978    2.1820 C.3     1  UNL1       -0.0127
      5 C           4.4809    5.1150    2.4139 C.2     1  UNL1       -0.0837
      6 H           3.5475    3.3029    1.5596 H       1  UNL1        0.0572
      7 H           2.1227    5.0152    0.0858 H       1  UNL1        0.0352
      8 H           2.9343    7.4965    0.6522 H       1  UNL1        0.0315
      9 H           4.8948    7.3037    2.4746 H       1  UNL1        0.0352
     10 H           5.3057    4.7163    2.9858 H       1  UNL1        0.0572
@<TRIPOS>BOND
     1     7     2    1
     2     8     3    1
     3     2     3    1
     4     2     1    1
     5     3     4    1
     6     6     1    1
     7     1     5    2
     8     4     5    1
     9     4     9    1
    10     5    10    1
