@<TRIPOS>MOLECULE
1,2,3,4,5
 13 13 0 0 0
SMALL
GASTEIGER

@<TRIPOS>ATOM
      1 C           4.2391    1.5670    1.3322 C.2     1  UNL1       -0.0650
      2 C           3.9158    1.8467    2.6905 C.3     1  UNL1        0.0084
      3 C           2.5669    1.4799    2.9313 C.2     1  UNL1       -0.0761
      4 C           2.0459    1.0056    1.6958 C.2     1  UNL1       -0.0651
      5 C           3.0893    1.0282    0.7337 C.2     1  UNL1       -0.0625
      6 C           5.6063    1.5647    0.7266 C.3     1  UNL1       -0.0429
      7 H           4.6455    2.0583    3.4623 H       1  UNL1        0.0397
      8 H           2.0924    1.3825    3.8958 H       1  UNL1        0.0578
      9 H           1.0990    0.4929    1.5696 H       1  UNL1        0.0615
     10 H           3.0522    0.5728   -0.2453 H       1  UNL1        0.0617
     11 H           5.6024    2.0161   -0.2641 H       1  UNL1        0.0275
     12 H           5.9567    0.5357    0.6206 H       1  UNL1        0.0275
     13 H           6.3179    2.0973    1.3535 H       1  UNL1        0.0275
@<TRIPOS>BOND
     1    11     6    1
     2    10     5    1
     3    12     6    1
     4     6     1    1
     5     6    13    1
     6     5     1    2
     7     5     4    1
     8     1     2    1
     9     9     4    1
    10     4     3    2
    11     2     3    1
    12     2     7    1
    13     3     8    1
