@<TRIPOS>MOLECULE
1,2,3,4,5
 10 10 0 0 0
SMALL
GASTEIGER

@<TRIPOS>ATOM
      1 C           5.6553    2.0724    6.9654 C.3     1  UNL1        0.0054
      2 C           4.7098    1.0011    7.1329 C.2     1  UNL1       -0.0763
      3 C           5.1142   -0.0612    6.3229 C.2     1  UNL1       -0.0654
      4 C           6.3266    0.2973    5.6823 C.2     1  UNL1       -0.0654
      5 C           6.6958    1.5843    6.1019 C.2     1  UNL1       -0.0763
      6 H           5.7606    2.9005    7.6565 H       1  UNL1        0.0394
      7 H           3.9270    0.9802    7.8722 H       1  UNL1        0.0578
      8 H           4.6445   -1.0340    6.2768 H       1  UNL1        0.0615
      9 H           6.9390   -0.3675    5.0876 H       1  UNL1        0.0615
     10 H           7.6636    2.0389    5.9664 H       1  UNL1        0.0578
@<TRIPOS>BOND
     1     9     4    1
     2     4     5    2
     3     4     3    1
     4    10     5    1
     5     5     1    1
     6     8     3    1
     7     3     2    2
     8     1     2    1
     9     1     6    1
    10     2     7    1
