@<TRIPOS>MOLECULE
1,2,3,4,5
 10 10 0 0 0
SMALL
GASTEIGER

@<TRIPOS>ATOM
      1 C           4.5564    0.1174    3.4041 C.3     1  UNL1        0.0054
      2 C           3.2667    0.6974    3.5024 C.2     1  UNL1       -0.0763
      3 C           3.3464    2.0050    2.9346 C.2     1  UNL1       -0.0654
      4 C           4.6660    2.1806    2.4296 C.2     1  UNL1       -0.0654
      5 C           5.4170    1.0386    2.7482 C.2     1  UNL1       -0.0763
      6 H           4.7854   -0.9251    3.5887 H       1  UNL1        0.0394
      7 H           2.3559    0.1585    3.7086 H       1  UNL1        0.0578
      8 H           2.4988    2.6207    2.6648 H       1  UNL1        0.0615
      9 H           4.9878    2.9912    1.7948 H       1  UNL1        0.0615
     10 H           6.4256    0.8374    2.4196 H       1  UNL1        0.0578
@<TRIPOS>BOND
     1     9     4    1
     2    10     5    1
     3     4     5    2
     4     4     3    1
     5     8     3    1
     6     5     1    1
     7     3     2    2
     8     1     2    1
     9     1     6    1
    10     2     7    1
