@<TRIPOS>MOLECULE
1,2,3,4,5
 10 10 0 0 0
SMALL
GASTEIGER

@<TRIPOS>ATOM
      1 C          -0.0007    0.8376    6.2787 C.3     1  UNL1        0.0054
      2 C           0.8287   -0.0603    5.5190 C.2     1  UNL1       -0.0763
      3 C           0.1825   -0.2985    4.2967 C.2     1  UNL1       -0.0654
      4 C          -1.0539    0.3937    4.2925 C.2     1  UNL1       -0.0654
      5 C          -1.1977    1.0651    5.5133 C.2     1  UNL1       -0.0763
      6 H           0.0851    0.9875    7.3484 H       1  UNL1        0.0394
      7 H           1.6872   -0.5944    5.8944 H       1  UNL1        0.0578
      8 H           0.4977   -1.0158    3.5519 H       1  UNL1        0.0615
      9 H          -1.8142    0.3049    3.5285 H       1  UNL1        0.0615
     10 H          -2.1045    1.5190    5.8823 H       1  UNL1        0.0578
@<TRIPOS>BOND
     1     9     4    1
     2     8     3    1
     3     4     3    1
     4     4     5    2
     5     3     2    2
     6     5    10    1
     7     5     1    1
     8     2     7    1
     9     2     1    1
    10     1     6    1
