@<TRIPOS>MOLECULE
1,2,3,4,5
 13 13 0 0 0
SMALL
GASTEIGER

@<TRIPOS>ATOM
      1 C           4.2391    4.9486    1.3323 C.2     1  UNL1       -0.0650
      2 C           3.9159    4.6689    2.6906 C.3     1  UNL1        0.0084
      3 C           2.5669    5.0357    2.9314 C.2     1  UNL1       -0.0761
      4 C           2.0460    5.5101    1.6959 C.2     1  UNL1       -0.0651
      5 C           3.0894    5.4875    0.7338 C.2     1  UNL1       -0.0625
      6 C           5.6064    4.9509    0.7266 C.3     1  UNL1       -0.0429
      7 H           4.6455    4.4572    3.4623 H       1  UNL1        0.0397
      8 H           2.0924    5.1330    3.8959 H       1  UNL1        0.0578
      9 H           1.0991    6.0227    1.5697 H       1  UNL1        0.0615
     10 H           3.0523    5.9428   -0.2452 H       1  UNL1        0.0617
     11 H           5.6024    4.4996   -0.2641 H       1  UNL1        0.0275
     12 H           5.9568    5.9798    0.6209 H       1  UNL1        0.0275
     13 H           6.3179    4.4180    1.3535 H       1  UNL1        0.0275
@<TRIPOS>BOND
     1    11     6    1
     2    10     5    1
     3    12     6    1
     4     6     1    1
     5     6    13    1
     6     5     1    2
     7     5     4    1
     8     1     2    1
     9     9     4    1
    10     4     3    2
    11     2     3    1
    12     2     7    1
    13     3     8    1
