@<TRIPOS>MOLECULE
1,2,3,4,5
 13 13 0 0 0
SMALL
GASTEIGER

@<TRIPOS>ATOM
      1 C           2.0520    1.4181    2.2227 C.2     1  UNL1       -0.0650
      2 C           1.9045    1.1987    3.6252 C.3     1  UNL1        0.0084
      3 C           1.1518    2.2651    4.1824 C.2     1  UNL1       -0.0761
      4 C           0.8166    3.1401    3.1175 C.2     1  UNL1       -0.0651
      5 C           1.3835    2.6173    1.9262 C.2     1  UNL1       -0.0625
      6 C           2.9161    0.6432    1.2814 C.3     1  UNL1       -0.0429
      7 H           2.4821    0.4820    4.1972 H       1  UNL1        0.0397
      8 H           1.0746    2.4949    5.2347 H       1  UNL1        0.0578
      9 H           0.4275    4.1435    3.2178 H       1  UNL1        0.0615
     10 H           1.3989    3.1188    0.9665 H       1  UNL1        0.0617
     11 H           3.0764   -0.3737    1.6343 H       1  UNL1        0.0275
     12 H           3.8912    1.1260    1.1851 H       1  UNL1        0.0275
     13 H           2.4605    0.6013    0.2939 H       1  UNL1        0.0275
@<TRIPOS>BOND
     1    13     6    1
     2    10     5    1
     3    12     6    1
     4     6    11    1
     5     6     1    1
     6     5     1    2
     7     5     4    1
     8     1     2    1
     9     4     9    1
    10     4     3    2
    11     2     3    1
    12     2     7    1
    13     3     8    1
