@<TRIPOS>MOLECULE
1,2,3,4,5
 10 10 0 0 0
SMALL
GASTEIGER

@<TRIPOS>ATOM
      1 C           2.2728    2.1833    2.7243 C.2     1  UNL1       -0.0763
      2 C           1.2146    1.4166    2.2084 C.2     1  UNL1       -0.0654
      3 C           0.0556    2.2300    2.1377 C.2     1  UNL1       -0.0654
      4 C           0.3805    3.5075    2.6035 C.2     1  UNL1       -0.0763
      5 C           1.7524    3.4870    3.0252 C.3     1  UNL1        0.0054
      6 H           3.3155    1.9112    2.7113 H       1  UNL1        0.0578
      7 H           1.3081    0.4282    1.7793 H       1  UNL1        0.0615
      8 H          -0.8808    1.9451    1.6784 H       1  UNL1        0.0615
      9 H          -0.2246    4.3953    2.5202 H       1  UNL1        0.0578
     10 H           2.3493    4.3759    3.1887 H       1  UNL1        0.0394
@<TRIPOS>BOND
     1     8     3    1
     2     7     2    1
     3     3     2    1
     4     3     4    2
     5     2     1    2
     6     9     4    1
     7     4     5    1
     8     6     1    1
     9     1     5    1
    10     5    10    1
