@<TRIPOS>MOLECULE
1,2,3,4,5
 13 13 0 0 0
SMALL
GASTEIGER

@<TRIPOS>ATOM
      1 C          -0.3482   -0.8566    4.3041 C.2     1  UNL1       -0.0541
      2 C           0.4205   -1.1796    3.1523 C.2     1  UNL1       -0.0625
      3 C          -0.3958   -1.0939    2.0072 C.2     1  UNL1       -0.0761
      4 C          -1.6776   -0.6443    2.4456 C.3     1  UNL1        0.0057
      5 C          -1.6396   -0.5438    3.8726 C.2     1  UNL1       -0.0734
      6 C           0.0947   -1.0210    5.7229 C.3     1  UNL1       -0.0400
      7 H           1.4123   -1.6131    3.1781 H       1  UNL1        0.0617
      8 H          -0.1556   -1.4615    1.0212 H       1  UNL1        0.0578
      9 H          -2.5891   -0.6889    1.8587 H       1  UNL1        0.0394
     10 H          -2.5006   -0.3958    4.5066 H       1  UNL1        0.0581
     11 H           1.1574   -0.8146    5.8427 H       1  UNL1        0.0277
     12 H          -0.0812   -2.0518    6.0394 H       1  UNL1        0.0277
     13 H          -0.4674   -0.3670    6.3861 H       1  UNL1        0.0277
@<TRIPOS>BOND
     1     8     3    1
     2     9     4    1
     3     3     4    1
     4     3     2    2
     5     4     5    1
     6     2     7    1
     7     2     1    1
     8     5     1    2
     9     5    10    1
    10     1     6    1
    11     6    11    1
    12     6    12    1
    13     6    13    1
