@<TRIPOS>MOLECULE
1,2,3,4,5
 10 10 0 0 0
SMALL
GASTEIGER

@<TRIPOS>ATOM
      1 C           3.9227    1.9837    3.1425 C.3     1  UNL1       -0.0235
      2 C           4.6805    2.4500    2.0494 C.3     1  UNL1       -0.0127
      3 C           5.8155    3.1256    2.5602 C.2     1  UNL1       -0.0837
      4 C           5.7369    3.1063    3.9584 C.2     1  UNL1       -0.0837
      5 C           4.5581    2.4101    4.3245 C.3     1  UNL1       -0.0127
      6 H           3.0464    1.3508    3.0892 H       1  UNL1        0.0315
      7 H           4.5107    2.1900    1.0122 H       1  UNL1        0.0352
      8 H           6.6612    3.4786    1.9843 H       1  UNL1        0.0572
      9 H           6.4911    3.4686    4.6460 H       1  UNL1        0.0572
     10 H           4.2591    2.1604    5.3346 H       1  UNL1        0.0352
@<TRIPOS>BOND
     1     7     2    1
     2     8     3    1
     3     2     3    1
     4     2     1    1
     5     3     4    2
     6     6     1    1
     7     1     5    1
     8     4     5    1
     9     4     9    1
    10     5    10    1
