@<TRIPOS>MOLECULE
1,2,3,4,5
 10 10 0 0 0
SMALL
GASTEIGER

@<TRIPOS>ATOM
      1 C           5.8838    6.8714   10.0706 C.2     1  UNL1       -0.0654
      2 C           4.9190    7.7201    9.4801 C.2     1  UNL1       -0.0654
      3 C           4.6534    7.2381    8.1777 C.2     1  UNL1       -0.0763
      4 C           5.4185    6.0683    7.9773 C.3     1  UNL1        0.0054
      5 C           6.1900    5.8512    9.1454 C.2     1  UNL1       -0.0763
      6 H           4.0797    7.7591    7.4209 H       1  UNL1        0.0578
      7 H           4.5719    8.6605    9.8915 H       1  UNL1        0.0615
      8 H           6.3686    7.0312   11.0262 H       1  UNL1        0.0615
      9 H           6.9601    5.0972    9.2622 H       1  UNL1        0.0578
     10 H           5.5149    5.5177    7.0472 H       1  UNL1        0.0394
@<TRIPOS>BOND
     1    10     4    1
     2     6     3    1
     3     4     3    1
     4     4     5    1
     5     3     2    2
     6     5     9    1
     7     5     1    2
     8     2     7    1
     9     2     1    1
    10     1     8    1
