@<TRIPOS>MOLECULE
1,2,3,4,5
 10 10 0 0 0
SMALL
GASTEIGER

@<TRIPOS>ATOM
      1 C           2.5623    6.0277    1.9031 C.2     1  UNL1       -0.0654
      2 C           3.1165    5.0919    1.0041 C.2     1  UNL1       -0.0654
      3 C           4.5233    5.2291    1.0451 C.2     1  UNL1       -0.0763
      4 C           4.8410    6.1844    2.0243 C.3     1  UNL1        0.0054
      5 C           3.6219    6.6890    2.5448 C.2     1  UNL1       -0.0763
      6 H           1.5078    6.2277    2.0440 H       1  UNL1        0.0615
      7 H           2.5613    4.5080    0.2809 H       1  UNL1        0.0615
      8 H           5.2166    4.7725    0.3522 H       1  UNL1        0.0578
      9 H           5.8267    6.5793    2.2424 H       1  UNL1        0.0394
     10 H           3.5304    7.5167    3.2363 H       1  UNL1        0.0578
@<TRIPOS>BOND
     1     7     2    1
     2     8     3    1
     3     2     3    2
     4     2     1    1
     5     3     4    1
     6     1     6    1
     7     1     5    2
     8     4     9    1
     9     4     5    1
    10     5    10    1
