@<TRIPOS>MOLECULE
1,2,3,4,5
 10 10 0 0 0
SMALL
GASTEIGER

@<TRIPOS>ATOM
      1 C           1.8950    4.4394    8.5137 C.2     1  UNL1       -0.0837
      2 C           1.4959    4.5170    9.8690 C.2     1  UNL1       -0.0837
      3 C           1.3686    5.8821   10.2092 C.3     1  UNL1       -0.0127
      4 C           1.7106    6.6489    9.0722 C.3     1  UNL1       -0.0235
      5 C           2.0263    5.7523    8.0202 C.3     1  UNL1       -0.0127
      6 H           1.2160    3.6798   10.4973 H       1  UNL1        0.0572
      7 H           1.9763    3.5288    7.9310 H       1  UNL1        0.0572
      8 H           2.1856    6.0192    6.9817 H       1  UNL1        0.0352
      9 H           1.5966    7.7232    8.9782 H       1  UNL1        0.0315
     10 H           0.9830    6.2645   11.1469 H       1  UNL1        0.0352
@<TRIPOS>BOND
     1     8     5    1
     2     7     1    1
     3     5     1    1
     4     5     4    1
     5     1     2    2
     6     9     4    1
     7     4     3    1
     8     2     3    1
     9     2     6    1
    10     3    10    1
