@<TRIPOS>MOLECULE
1,2,3,4,5
 41 42 0 0 0
SMALL
GASTEIGER

@<TRIPOS>ATOM
      1 C           1.8596    0.6547    2.7901 C.3     1  UNL1        0.0000
      2 C           0.8886    1.6357    2.3922 C.2     1  UNL1        0.0000
      3 C           0.9034    1.7314    0.9840 C.2     1  UNL1        0.0000
      4 C           1.8778    0.8185    0.4890 C.2     1  UNL1        0.0000
      5 C           2.4688    0.1625    1.5856 C.2     1  UNL1        0.0000
      6 C          -0.1467    2.2635    3.2861 C.3     1  UNL1        0.0000
      7 H          -0.3328    3.3023    3.0149 H       1  UNL1        0.0000
      8 H           0.1635    2.2359    4.3275 H       1  UNL1        0.0000
      9 H          -1.0921    1.7195    3.2043 H       1  UNL1        0.0000
     10 C          -0.1411    2.3925    0.1268 C.3     1  UNL1        0.0000
     11 H          -0.7859    1.6281   -0.3138 H       1  UNL1        0.0000
     12 H           0.2949    2.9628   -0.6952 H       1  UNL1        0.0000
     13 H          -0.7693    3.0575    0.7143 H       1  UNL1        0.0000
     14 C           2.0239    0.4477   -0.9603 C.3     1  UNL1        0.0000
     15 H           2.9742   -0.0471   -1.1554 H       1  UNL1        0.0000
     16 H           1.9454    1.3203   -1.6087 H       1  UNL1        0.0000
     17 H           1.2285   -0.2449   -1.2457 H       1  UNL1        0.0000
     18 C           3.3683   -1.0379    1.4877 C.3     1  UNL1        0.0000
     19 H           2.7620   -1.9457    1.4758 H       1  UNL1        0.0000
     20 H           4.0495   -1.0975    2.3316 H       1  UNL1        0.0000
     21 H           3.9561   -1.0190    0.5704 H       1  UNL1        0.0000
     22 SI          2.0193   -0.0264    4.5219 Si      1  UNL1        0.0000
     23 C           3.0056   -1.6368    4.8010 C.3     1  UNL1        0.0000
     24 H           2.7181   -2.4194    4.1086 H       1  UNL1        0.0000
     25 H           2.8351   -2.0076    5.8082 H       1  UNL1        0.0000
     26 H           4.0720   -1.4686    4.6947 H       1  UNL1        0.0000
     27 C           2.6877    1.2578    5.7657 C.3     1  UNL1        0.0000
     28 H           3.6567    1.6230    5.4321 H       1  UNL1        0.0000
     29 H           2.8124    0.8314    6.7558 H       1  UNL1        0.0000
     30 H           2.0363    2.1188    5.8684 H       1  UNL1        0.0000
     31 C           0.2171   -0.5635    4.9739 C.ar    1  UNL1        0.0000
     32 C          -0.4073   -1.4987    4.1648 C.ar    1  UNL1        0.0000
     33 C          -1.7154   -1.9200    4.3677 C.ar    1  UNL1        0.0000
     34 C          -2.4452   -1.3877    5.4249 C.ar    1  UNL1        0.0000
     35 C          -1.8488   -0.4480    6.2564 C.ar    1  UNL1        0.0000
     36 C          -0.5358   -0.0552    6.0164 C.ar    1  UNL1        0.0000
     37 F           0.2747   -2.0312    3.1423 F       1  UNL1        0.0000
     38 F          -2.2772   -2.8287    3.5597 F       1  UNL1        0.0000
     39 F          -3.7061   -1.7763    5.6391 F       1  UNL1        0.0000
     40 F          -2.5400    0.0724    7.2790 F       1  UNL1        0.0000
     41 F          -0.0020    0.8570    6.8422 F       1  UNL1        0.0000
@<TRIPOS>BOND
     1    16    14    1
     2    17    14    1
     3    15    14    1
     4    14     4    1
     5    12    10    1
     6    11    10    1
     7    10    13    1
     8    10     3    1
     9     4     3    1
    10     4     5    2
    11    21    18    1
    12     3     2    2
    13    19    18    1
    14    18     5    1
    15    18    20    1
    16     5     1    1
    17     2     1    1
    18     2     6    1
    19     1    22    1
    20     7     6    1
    21    37    32    1
    22     9     6    1
    23     6     8    1
    24    38    33    1
    25    24    23    1
    26    32    33   ar
    27    32    31   ar
    28    33    34   ar
    29    22    23    1
    30    22    31    1
    31    22    27    1
    32    26    23    1
    33    23    25    1
    34    31    36   ar
    35    34    39    1
    36    34    35   ar
    37    28    27    1
    38    27    30    1
    39    27    29    1
    40    36    35   ar
    41    36    41    1
    42    35    40    1
