@<TRIPOS>MOLECULE
34,35,36,37,38
 62 66 0 0 0
SMALL
GASTEIGER

@<TRIPOS>ATOM
      1 SI          1.1544    4.8194    9.6592 Si      1  UNL1        0.0000
      2 SI          0.7602    8.5898    5.1565 Si      1  UNL1        0.0000
      3 O          -0.4538    6.3344    7.2207 O.2     1  UNL1        0.0000
      4 C           3.5636    4.2815    6.1769 C.3     1  UNL1        0.0000
      5 H           2.5844    4.1946    6.6480 H       1  UNL1        0.0000
      6 H           3.8437    3.3007    5.7911 H       1  UNL1        0.0000
      7 C           3.4629    5.2909    4.9732 C.3     1  UNL1        0.0000
      8 H           3.6999    4.7620    4.0495 H       1  UNL1        0.0000
      9 H           2.4379    5.6555    4.9029 H       1  UNL1        0.0000
     10 C           4.4201    6.4378    5.1519 C.ar    1  UNL1        0.0000
     11 C           4.1244    7.4709    6.0477 C.ar    1  UNL1        0.0000
     12 C           5.1571    8.2548    6.5524 C.ar    1  UNL1        0.0000
     13 H           4.9232    8.9858    7.3145 H       1  UNL1        0.0000
     14 C           6.4823    7.9795    6.2445 C.ar    1  UNL1        0.0000
     15 C           6.7351    7.1041    5.1934 C.ar    1  UNL1        0.0000
     16 H           7.7524    6.9229    4.8787 H       1  UNL1        0.0000
     17 C           5.7073    6.3727    4.6293 C.ar    1  UNL1        0.0000
     18 H           5.9328    5.6371    3.8703 H       1  UNL1        0.0000
     19 C           7.5626    8.3772    7.2089 C.3     1  UNL1        0.0000
     20 H           7.3506    9.3659    7.6165 H       1  UNL1        0.0000
     21 H           8.5236    8.4184    6.6963 H       1  UNL1        0.0000
     22 C           7.6756    7.3531    8.4093 C.3     1  UNL1        0.0000
     23 H           8.6810    6.9322    8.4133 H       1  UNL1        0.0000
     24 H           7.5298    7.8975    9.3425 H       1  UNL1        0.0000
     25 C           6.6617    6.2514    8.2927 C.ar    1  UNL1        0.0000
     26 C           6.9399    5.0839    7.5893 C.ar    1  UNL1        0.0000
     27 H           7.9639    4.8243    7.3640 H       1  UNL1        0.0000
     28 C           5.9135    4.3172    7.0717 C.ar    1  UNL1        0.0000
     29 H           6.1483    3.4594    6.4577 H       1  UNL1        0.0000
     30 C           4.5921    4.7380    7.1755 C.ar    1  UNL1        0.0000
     31 C           4.2996    5.7771    8.0654 C.ar    1  UNL1        0.0000
     32 C           5.3411    6.4961    8.6434 C.ar    1  UNL1        0.0000
     33 H           5.0973    7.3552    9.2536 H       1  UNL1        0.0000
     34 C           2.8781    7.3349    6.8231 C.3     1  UNL1        0.0000
     35 C           2.9748    6.4088    7.9281 C.3     1  UNL1        0.0000
     36 C           1.6659    6.1307    8.3993 C.3     1  UNL1        0.0000
     37 C           0.7157    6.6374    7.3725 C.2     1  UNL1        0.0000
     38 C           1.5089    7.6349    6.6043 C.3     1  UNL1        0.0000
     39 C          -0.1614    5.6142   10.7810 C.3     1  UNL1        0.0000
     40 H          -0.5434    4.9116   11.5148 H       1  UNL1        0.0000
     41 H          -1.0010    5.9617   10.1871 H       1  UNL1        0.0000
     42 H           0.2411    6.4697   11.3179 H       1  UNL1        0.0000
     43 C           0.4515    3.3230    8.7086 C.3     1  UNL1        0.0000
     44 H           1.2269    2.7642    8.1917 H       1  UNL1        0.0000
     45 H          -0.2747    3.6530    7.9720 H       1  UNL1        0.0000
     46 H          -0.0504    2.6379    9.3849 H       1  UNL1        0.0000
     47 C           2.7034    4.3378   10.6600 C.3     1  UNL1        0.0000
     48 H           2.4558    3.6094   11.4245 H       1  UNL1        0.0000
     49 H           3.1361    5.2005   11.1571 H       1  UNL1        0.0000
     50 H           3.4738    3.9047   10.0294 H       1  UNL1        0.0000
     51 C           2.1493    9.6259    4.3627 C.3     1  UNL1        0.0000
     52 H           2.9449    9.0010    3.9686 H       1  UNL1        0.0000
     53 H           2.5949   10.3059    5.0823 H       1  UNL1        0.0000
     54 H           1.7632   10.2228    3.5436 H       1  UNL1        0.0000
     55 C           0.0442    7.3279    3.9187 C.3     1  UNL1        0.0000
     56 H          -0.5796    7.8232    3.1809 H       1  UNL1        0.0000
     57 H          -0.5714    6.5997    4.4379 H       1  UNL1        0.0000
     58 H           0.8225    6.7915    3.3827 H       1  UNL1        0.0000
     59 C          -0.6003    9.7098    5.8746 C.3     1  UNL1        0.0000
     60 H          -0.1902   10.4288    6.5796 H       1  UNL1        0.0000
     61 H          -1.3380    9.1132    6.4021 H       1  UNL1        0.0000
     62 H          -1.1173   10.2643    5.0979 H       1  UNL1        0.0000
@<TRIPOS>BOND
     1    56    55    1
     2    58    55    1
     3    54    51    1
     4    18    17    1
     5    55    57    1
     6    55     2    1
     7    52    51    1
     8     8     7    1
     9    51    53    1
    10    51     2    1
    11    17    10   ar
    12    17    15   ar
    13    16    15    1
    14     9     7    1
    15     7    10    1
    16     7     4    1
    17    62    59    1
    18    10    11   ar
    19     2    59    1
    20     2    38    1
    21    15    14   ar
    22     6     4    1
    23    59    61    1
    24    59    60    1
    25    11    12   ar
    26    11    34    1
    27     4     5    1
    28     4    30    1
    29    14    12   ar
    30    14    19    1
    31    29    28    1
    32    12    13    1
    33    38    34    1
    34    38    37    1
    35    21    19    1
    36    34    35    1
    37    28    30   ar
    38    28    26   ar
    39    30    31   ar
    40    19    20    1
    41    19    22    1
    42     3    37    2
    43    27    26    1
    44    37    36    1
    45    26    25   ar
    46    35    31    1
    47    35    36    1
    48    45    43    1
    49    31    32   ar
    50    44    43    1
    51    25    22    1
    52    25    32   ar
    53    36     1    1
    54    22    23    1
    55    22    24    1
    56    32    33    1
    57    43    46    1
    58    43     1    1
    59     1    47    1
    60     1    39    1
    61    50    47    1
    62    41    39    1
    63    47    49    1
    64    47    48    1
    65    39    42    1
    66    39    40    1
