@<TRIPOS>MOLECULE
1,3,5,7,9
 10 10 0 0 0
SMALL
GASTEIGER

@<TRIPOS>ATOM
      1 C           4.0304    5.9325    7.2233 C.2     1  UNL1       -0.0763
      2 H           4.8696    6.5950    7.3617 H       1  UNL1        0.0578
      3 C           4.0921    4.5363    7.0532 C.2     1  UNL1       -0.0654
      4 H           4.9922    3.9454    7.0002 H       1  UNL1        0.0615
      5 C           2.7750    4.0309    7.0685 C.2     1  UNL1       -0.0654
      6 H           2.5033    2.9877    7.0528 H       1  UNL1        0.0615
      7 C           1.8866    5.1148    7.2768 C.2     1  UNL1       -0.0763
      8 H           0.8306    5.0368    7.4765 H       1  UNL1        0.0578
      9 C           2.6626    6.2882    7.3712 C.3     1  UNL1        0.0054
     10 H           2.2980    7.2688    7.6345 H       1  UNL1        0.0394
@<TRIPOS>BOND
     1     4     3    1
     2     6     5    1
     3     3     5    1
     4     3     1    2
     5     5     7    2
     6     1     2    1
     7     1     9    1
     8     7     9    1
     9     7     8    1
    10     9    10    1
