@<TRIPOS>MOLECULE
1,2,3,4,5
 25 25 0 0 0
SMALL
GASTEIGER

@<TRIPOS>ATOM
      1 C          -1.4646    3.7806   19.7812 C.2     1  UNL1       -0.0477
      2 C          -2.7202    4.4820   19.7603 C.2     1  UNL1       -0.0477
      3 C          -3.5647    3.8984   20.7333 C.2     1  UNL1       -0.0584
      4 C          -2.8356    2.8404   21.3752 C.3     1  UNL1        0.0231
      5 C          -1.5220    2.8024   20.8100 C.2     1  UNL1       -0.0584
      6 C          -0.2582    4.1962   19.0033 C.3     1  UNL1       -0.0395
      7 C          -2.9874    5.7002   18.9439 C.3     1  UNL1       -0.0395
      8 C          -4.9126    4.3980   21.1438 C.3     1  UNL1       -0.0424
      9 C          -3.2820    2.0890   22.5890 C.3     1  UNL1       -0.0510
     10 C          -0.3749    1.9850   21.3149 C.3     1  UNL1       -0.0424
     11 H           0.4739    3.3944   18.9549 H       1  UNL1        0.0278
     12 H           0.2092    5.0634   19.4726 H       1  UNL1        0.0278
     13 H          -0.5367    4.4713   17.9871 H       1  UNL1        0.0278
     14 H          -4.0315    5.9889   19.0054 H       1  UNL1        0.0278
     15 H          -2.7431    5.5229   17.8968 H       1  UNL1        0.0278
     16 H          -2.3704    6.5267   19.2993 H       1  UNL1        0.0278
     17 H          -5.4563    4.7878   20.2884 H       1  UNL1        0.0275
     18 H          -4.8034    5.1975   21.8785 H       1  UNL1        0.0275
     19 H          -5.5039    3.6027   21.5897 H       1  UNL1        0.0275
     20 H          -2.7892    1.1220   22.6505 H       1  UNL1        0.0242
     21 H          -4.3562    1.9244   22.5715 H       1  UNL1        0.0242
     22 H          -3.0380    2.6556   23.4895 H       1  UNL1        0.0242
     23 H           0.3386    1.7798   20.5211 H       1  UNL1        0.0275
     24 H          -0.7170    1.0366   21.7210 H       1  UNL1        0.0275
     25 H           0.1419    2.5287   22.1075 H       1  UNL1        0.0275
@<TRIPOS>BOND
     1    15     7    1
     2    13     6    1
     3     7    14    1
     4     7    16    1
     5     7     2    1
     6    11     6    1
     7     6    12    1
     8     6     1    1
     9     2     1    1
    10     2     3    2
    11     1     5    2
    12    17     8    1
    13    23    10    1
    14     3     8    1
    15     3     4    1
    16     5    10    1
    17     5     4    1
    18     8    19    1
    19     8    18    1
    20    10    24    1
    21    10    25    1
    22     4     9    1
    23    21     9    1
    24     9    20    1
    25     9    22    1
