@<TRIPOS>MOLECULE
1,2,3,4,5
 13 13 0 0 0
SMALL
GASTEIGER

@<TRIPOS>ATOM
      1 C           4.5459   11.6665    2.8892 C.3     1  UNL1        0.0167
      2 C           4.0732   11.6093    1.5567 C.2     1  UNL1       -0.0733
      3 C           2.6908   11.3226    1.5885 C.2     1  UNL1       -0.0651
      4 C           2.3138   11.1640    2.9427 C.2     1  UNL1       -0.0651
      5 C           3.4558   11.3718    3.7399 C.2     1  UNL1       -0.0733
      6 C           5.9611   11.9250    3.3311 C.3     1  UNL1       -0.0515
      7 H           4.6889   11.6347    0.6648 H       1  UNL1        0.0581
      8 H           2.0779   11.0771    0.7300 H       1  UNL1        0.0615
      9 H           1.3497   10.8186    3.3013 H       1  UNL1        0.0615
     10 H           3.5045   11.2581    4.8167 H       1  UNL1        0.0581
     11 H           6.0087   12.7752    4.0202 H       1  UNL1        0.0241
     12 H           6.6065   12.1250    2.4747 H       1  UNL1        0.0241
     13 H           6.3605   11.0549    3.8567 H       1  UNL1        0.0241
@<TRIPOS>BOND
     1     7     2    1
     2     8     3    1
     3     2     3    2
     4     2     1    1
     5     3     4    1
     6    12     6    1
     7     1     6    1
     8     1     5    1
     9     4     9    1
    10     4     5    2
    11     6    13    1
    12     6    11    1
    13     5    10    1
