@<TRIPOS>MOLECULE
1,2,3,4,5
 13 13 0 0 0
SMALL
GASTEIGER

@<TRIPOS>ATOM
      1 C           4.7852   15.4349    2.1035 C.2     1  UNL1       -0.0723
      2 C           3.4921   15.9985    2.0964 C.3     1  UNL1       -0.0097
      3 C           2.7544   15.4123    1.0328 C.3     1  UNL1       -0.0232
      4 C           3.6068   14.4903    0.3807 C.3     1  UNL1       -0.0124
      5 C           4.8495   14.4999    1.0510 C.2     1  UNL1       -0.0808
      6 C           5.9296   15.8561    2.9804 C.3     1  UNL1       -0.0435
      7 H           3.1690   16.8248    2.7167 H       1  UNL1        0.0354
      8 H           1.7920   15.7521    0.6709 H       1  UNL1        0.0316
      9 H           3.4016   13.9828   -0.5550 H       1  UNL1        0.0352
     10 H           5.7503   13.9959    0.7215 H       1  UNL1        0.0575
     11 H           6.7839   15.1931    2.8451 H       1  UNL1        0.0274
     12 H           5.6459   15.8548    4.0342 H       1  UNL1        0.0274
     13 H           6.2441   16.8703    2.7245 H       1  UNL1        0.0274
@<TRIPOS>BOND
     1     9     4    1
     2     4     3    1
     3     4     5    1
     4     8     3    1
     5    10     5    1
     6     3     2    1
     7     5     1    2
     8     2     1    1
     9     2     7    1
    10     1     6    1
    11    13     6    1
    12    11     6    1
    13     6    12    1
