@<TRIPOS>MOLECULE
2,3,4,5,6
 22 22 0 0 0
SMALL
GASTEIGER

@<TRIPOS>ATOM
      1 SI         18.3706    0.5509   12.3049 Si      1  UNL1        0.0000
      2 C          18.8485    2.3667   12.0199 C.2     1  UNL1        0.0000
      3 C          19.3962    2.8923   10.8133 C.2     1  UNL1        0.0000
      4 C          19.2334    4.2935   10.8085 C.2     1  UNL1        0.0000
      5 C          18.5735    4.6573   12.0002 C.2     1  UNL1        0.0000
      6 C          18.3432    3.4872   12.7422 C.3     1  UNL1        0.0000
      7 C          18.4185    0.1939   14.1771 C.3     1  UNL1        0.0000
      8 C          19.6136   -0.5530   11.3698 C.3     1  UNL1        0.0000
      9 C          16.6101    0.3511   11.5997 C.3     1  UNL1        0.0000
     10 H          19.7022    2.2963    9.9632 H       1  UNL1        0.0000
     11 H          19.4168    4.9437    9.9634 H       1  UNL1        0.0000
     12 H          18.1888    5.6405   12.2349 H       1  UNL1        0.0000
     13 H          17.7407    3.4255   13.6403 H       1  UNL1        0.0000
     14 H          18.0364   -0.8003   14.3839 H       1  UNL1        0.0000
     15 H          19.4343    0.2441   14.5589 H       1  UNL1        0.0000
     16 H          17.8084    0.8967   14.7371 H       1  UNL1        0.0000
     17 H          19.3930   -1.6007   11.5454 H       1  UNL1        0.0000
     18 H          19.5679   -0.3931   10.2968 H       1  UNL1        0.0000
     19 H          20.6342   -0.3711   11.6956 H       1  UNL1        0.0000
     20 H          16.2697   -0.6731   11.7102 H       1  UNL1        0.0000
     21 H          15.8957    0.9897   12.1108 H       1  UNL1        0.0000
     22 H          16.5695    0.5966   10.5426 H       1  UNL1        0.0000
@<TRIPOS>BOND
     1    10     3    1
     2    11     4    1
     3    18     8    1
     4    22     9    1
     5     4     3    1
     6     4     5    2
     7     3     2    2
     8     8    17    1
     9     8    19    1
    10     8     1    1
    11     9    20    1
    12     9    21    1
    13     9     1    1
    14     5    12    1
    15     5     6    1
    16     2     1    1
    17     2     6    1
    18     1     7    1
    19     6    13    1
    20     7    14    1
    21     7    15    1
    22     7    16    1
