@<TRIPOS>MOLECULE
2,3,4,5,6
 22 22 0 0 0
SMALL
GASTEIGER

@<TRIPOS>ATOM
      1 SI         24.3362    4.0947   14.3684 Si      1  UNL1        0.0000
      2 C          22.8161    4.7494   13.4399 C.2     1  UNL1        0.0000
      3 C          22.7280    4.9771   12.0356 C.2     1  UNL1        0.0000
      4 C          21.6261    5.8220   11.7793 C.2     1  UNL1        0.0000
      5 C          21.0196    6.1318   13.0139 C.2     1  UNL1        0.0000
      6 C          21.7430    5.4787   14.0260 C.3     1  UNL1        0.0000
      7 C          25.2926    2.8964   13.2356 C.3     1  UNL1        0.0000
      8 C          23.7285    3.2241   15.9556 C.3     1  UNL1        0.0000
      9 C          25.3988    5.6181   14.7998 C.3     1  UNL1        0.0000
     10 H          23.4949    4.7159   11.3177 H       1  UNL1        0.0000
     11 H          21.4017    6.2921   10.8310 H       1  UNL1        0.0000
     12 H          20.2339    6.8587   13.1699 H       1  UNL1        0.0000
     13 H          21.6007    5.6250   15.0897 H       1  UNL1        0.0000
     14 H          26.1683    2.5122   13.7486 H       1  UNL1        0.0000
     15 H          24.6864    2.0465   12.9358 H       1  UNL1        0.0000
     16 H          25.6444    3.3936   12.3364 H       1  UNL1        0.0000
     17 H          24.5671    2.8222   16.5147 H       1  UNL1        0.0000
     18 H          23.2087    3.9163   16.6117 H       1  UNL1        0.0000
     19 H          23.0534    2.4031   15.7316 H       1  UNL1        0.0000
     20 H          26.2890    5.3208   15.3442 H       1  UNL1        0.0000
     21 H          25.7232    6.1456   13.9078 H       1  UNL1        0.0000
     22 H          24.8581    6.3271   15.4196 H       1  UNL1        0.0000
@<TRIPOS>BOND
     1    11     4    1
     2    10     3    1
     3     4     3    1
     4     4     5    2
     5     3     2    2
     6    16     7    1
     7    15     7    1
     8     5    12    1
     9     5     6    1
    10     7    14    1
    11     7     1    1
    12     2     6    1
    13     2     1    1
    14    21     9    1
    15     6    13    1
    16     1     9    1
    17     1     8    1
    18     9    20    1
    19     9    22    1
    20    19     8    1
    21     8    17    1
    22     8    18    1
