@<TRIPOS>MOLECULE
1,2,3,4,5
 10 10 0 0 0
SMALL
GASTEIGER

@<TRIPOS>ATOM
      1 C           6.9520    2.8367    9.7307 C.3     1  UNL1        0.0054
      2 C           7.4769    2.9653   11.0373 C.2     1  UNL1       -0.0763
      3 C           8.8721    3.1397   10.9306 C.2     1  UNL1       -0.0654
      4 C           9.2073    3.1333    9.5557 C.2     1  UNL1       -0.0654
      5 C           8.0194    2.9596    8.8186 C.2     1  UNL1       -0.0763
      6 H           5.9004    2.8056    9.4657 H       1  UNL1        0.0394
      7 H           6.8959    3.0589   11.9481 H       1  UNL1        0.0578
      8 H           9.5429    3.4143   11.7343 H       1  UNL1        0.0615
      9 H          10.1865    3.3517    9.1463 H       1  UNL1        0.0615
     10 H           7.9290    2.9908    7.7398 H       1  UNL1        0.0578
@<TRIPOS>BOND
     1    10     5    1
     2     5     4    2
     3     5     1    1
     4     9     4    1
     5     6     1    1
     6     4     3    1
     7     1     2    1
     8     3     2    2
     9     3     8    1
    10     2     7    1
