@<TRIPOS>MOLECULE
1,2,3,4,5
 10 10 0 0 0
SMALL
GASTEIGER

@<TRIPOS>ATOM
      1 C           7.0833   -0.1965   12.0330 C.3     1  UNL1       -0.0127
      2 C           7.8963   -1.2198   11.4835 C.3     1  UNL1       -0.0235
      3 C           7.3897   -1.5267   10.2010 C.3     1  UNL1       -0.0127
      4 C           6.2980   -0.6758    9.9433 C.2     1  UNL1       -0.0837
      5 C           6.1003    0.1341   11.0802 C.2     1  UNL1       -0.0837
      6 H           7.0973    0.1419   13.0619 H       1  UNL1        0.0352
      7 H           8.6547   -1.7893   12.0098 H       1  UNL1        0.0315
      8 H           7.7225   -2.3362    9.5652 H       1  UNL1        0.0352
      9 H           5.6568   -0.7170    9.0704 H       1  UNL1        0.0572
     10 H           5.2550    0.7908   11.2481 H       1  UNL1        0.0572
@<TRIPOS>BOND
     1     9     4    1
     2     8     3    1
     3     4     3    1
     4     4     5    2
     5     3     2    1
     6     5    10    1
     7     5     1    1
     8     2     7    1
     9     2     1    1
    10     1     6    1
