@<TRIPOS>MOLECULE
1,2,3,4,5
 25 25 0 0 0
SMALL
GASTEIGER

@<TRIPOS>ATOM
      1 C          10.0853   -1.6080   11.1121 C.3     1  UNL1        0.0052
      2 C           8.9936   -1.6913   10.1861 C.3     1  UNL1       -0.0053
      3 C           7.8026   -1.5174   10.9300 C.3     1  UNL1        0.0052
      4 C           8.1526   -1.4657   12.3541 C.2     1  UNL1       -0.0658
      5 C           9.5653   -1.5355   12.4563 C.2     1  UNL1       -0.0658
      6 C          11.5160   -1.7226   10.7153 C.3     1  UNL1       -0.0545
      7 C           9.1534   -1.9840    8.7312 C.3     1  UNL1       -0.0574
      8 C           6.3986   -1.5804   10.4261 C.3     1  UNL1       -0.0545
      9 C           7.1549   -1.4720   13.4621 C.3     1  UNL1       -0.0430
     10 C          10.3783   -1.6791   13.7049 C.3     1  UNL1       -0.0430
     11 H          12.1749   -1.6276   11.5728 H       1  UNL1        0.0239
     12 H          11.6933   -2.6840   10.2331 H       1  UNL1        0.0239
     13 H          11.7459   -0.9364    9.9972 H       1  UNL1        0.0239
     14 H           9.8889   -1.3090    8.2998 H       1  UNL1        0.0236
     15 H           9.5046   -3.0084    8.5976 H       1  UNL1        0.0236
     16 H           8.2163   -1.8641    8.1958 H       1  UNL1        0.0236
     17 H           6.3571   -1.3442    9.3664 H       1  UNL1        0.0239
     18 H           5.9942   -2.5828   10.5772 H       1  UNL1        0.0239
     19 H           5.7767   -0.8738   10.9697 H       1  UNL1        0.0239
     20 H           6.3087   -2.1060   13.2066 H       1  UNL1        0.0275
     21 H           7.6045   -1.8293   14.3845 H       1  UNL1        0.0275
     22 H           6.7907   -0.4562   13.6280 H       1  UNL1        0.0275
     23 H           9.8061   -1.3770   14.5766 H       1  UNL1        0.0275
     24 H          10.6880   -2.7185   13.8278 H       1  UNL1        0.0275
     25 H          11.2700   -1.0594   13.6603 H       1  UNL1        0.0275
@<TRIPOS>BOND
     1    16     7    1
     2    14     7    1
     3    15     7    1
     4     7     2    1
     5    17     8    1
     6    13     6    1
     7     2     3    1
     8     2     1    1
     9    12     6    1
    10     8    18    1
    11     8     3    1
    12     8    19    1
    13     6     1    1
    14     6    11    1
    15     3     4    1
    16     1     5    1
    17     4     5    2
    18     4     9    1
    19     5    10    1
    20    20     9    1
    21     9    22    1
    22     9    21    1
    23    25    10    1
    24    10    24    1
    25    10    23    1
