@<TRIPOS>MOLECULE
1,2,3,4,5
 25 25 0 0 0
SMALL
GASTEIGER

@<TRIPOS>ATOM
      1 C           4.4549   10.7191    6.6928 C.2     1  UNL1       -0.0658
      2 C           3.7772   11.4421    5.6469 C.3     1  UNL1        0.0052
      3 C           4.4440   11.1507    4.4092 C.3     1  UNL1       -0.0053
      4 C           5.4546   10.1673    4.6835 C.3     1  UNL1        0.0052
      5 C           5.4638    9.9312    6.1048 C.2     1  UNL1       -0.0658
      6 C           4.2149   10.9479    8.1439 C.3     1  UNL1       -0.0430
      7 C           2.7753   12.5191    5.9066 C.3     1  UNL1       -0.0545
      8 C           4.3251   11.9135    3.1242 C.3     1  UNL1       -0.0574
      9 C           6.5645    9.7552    3.7701 C.3     1  UNL1       -0.0545
     10 C           6.4973    9.1088    6.7943 C.3     1  UNL1       -0.0430
     11 H           4.9067   10.3737    8.7547 H       1  UNL1        0.0275
     12 H           4.3449   12.0075    8.3706 H       1  UNL1        0.0275
     13 H           3.1977   10.6725    8.4213 H       1  UNL1        0.0275
     14 H           3.2189   13.2921    6.5359 H       1  UNL1        0.0239
     15 H           2.4348   12.9754    4.9809 H       1  UNL1        0.0239
     16 H           1.9110   12.1110    6.4296 H       1  UNL1        0.0239
     17 H           5.1474   12.6284    3.0599 H       1  UNL1        0.0236
     18 H           4.3828   11.2509    2.2628 H       1  UNL1        0.0236
     19 H           3.3894   12.4625    3.0739 H       1  UNL1        0.0236
     20 H           7.4799   10.2786    4.0530 H       1  UNL1        0.0239
     21 H           6.7438    8.6854    3.8593 H       1  UNL1        0.0239
     22 H           6.3357    9.9955    2.7352 H       1  UNL1        0.0239
     23 H           6.5075    8.0934    6.4011 H       1  UNL1        0.0275
     24 H           7.4845    9.5426    6.6246 H       1  UNL1        0.0275
     25 H           6.3167    9.0574    7.8647 H       1  UNL1        0.0275
@<TRIPOS>BOND
     1    18     8    1
     2    22     9    1
     3    17     8    1
     4    19     8    1
     5     8     3    1
     6     9    21    1
     7     9    20    1
     8     9     4    1
     9     3     4    1
    10     3     2    1
    11     4     5    1
    12    15     7    1
    13     2     7    1
    14     2     1    1
    15     7    16    1
    16     7    14    1
    17     5     1    2
    18     5    10    1
    19    23    10    1
    20    24    10    1
    21     1     6    1
    22    10    25    1
    23     6    12    1
    24     6    13    1
    25     6    11    1
