@<TRIPOS>MOLECULE
1,2,3,4,5
 25 25 0 0 0
SMALL
GASTEIGER

@<TRIPOS>ATOM
      1 C           5.8078    3.8496   15.7482 C.2     1  UNL1       -0.0584
      2 C           5.3159    2.6074   16.2746 C.3     1  UNL1        0.0231
      3 C           3.8744    2.6480   16.2425 C.2     1  UNL1       -0.0584
      4 C           3.4943    3.8534   15.5771 C.2     1  UNL1       -0.0477
      5 C           4.7022    4.5978   15.2882 C.2     1  UNL1       -0.0477
      6 C           7.2409    4.2545   15.7794 C.3     1  UNL1       -0.0424
      7 C           6.1651    1.5897   16.9621 C.3     1  UNL1       -0.0510
      8 C           2.9766    1.6757   16.9474 C.3     1  UNL1       -0.0424
      9 C           2.1213    4.4238   15.4138 C.3     1  UNL1       -0.0395
     10 C           4.6969    6.0031   14.7881 C.3     1  UNL1       -0.0395
     11 H           7.8555    3.4766   15.3268 H       1  UNL1        0.0275
     12 H           7.5629    4.3803   16.8144 H       1  UNL1        0.0275
     13 H           7.4068    5.1872   15.2478 H       1  UNL1        0.0275
     14 H           5.6434    0.6398   17.0364 H       1  UNL1        0.0242
     15 H           6.4291    1.9302   17.9651 H       1  UNL1        0.0242
     16 H           7.0816    1.4473   16.3922 H       1  UNL1        0.0242
     17 H           1.9318    1.9311   16.7935 H       1  UNL1        0.0275
     18 H           3.1832    1.7049   18.0179 H       1  UNL1        0.0275
     19 H           3.1448    0.6604   16.5946 H       1  UNL1        0.0275
     20 H           2.0473    4.9036   14.4392 H       1  UNL1        0.0278
     21 H           1.9365    5.1769   16.1818 H       1  UNL1        0.0278
     22 H           1.3562    3.6553   15.4891 H       1  UNL1        0.0278
     23 H           5.7026    6.3601   14.5842 H       1  UNL1        0.0278
     24 H           4.2441    6.6545   15.5378 H       1  UNL1        0.0278
     25 H           4.1030    6.0736   13.8778 H       1  UNL1        0.0278
@<TRIPOS>BOND
     1    25    10    1
     2    20     9    1
     3    23    10    1
     4    10     5    1
     5    10    24    1
     6    13     6    1
     7     5     4    1
     8     5     1    2
     9    11     6    1
    10     9    22    1
    11     9     4    1
    12     9    21    1
    13     4     3    2
    14     1     6    1
    15     1     2    1
    16     6    12    1
    17     3     2    1
    18     3     8    1
    19     2     7    1
    20    16     7    1
    21    19     8    1
    22    17     8    1
    23     8    18    1
    24     7    14    1
    25     7    15    1
