@<TRIPOS>MOLECULE
1,2,3,4,5
 25 25 0 0 0
SMALL
GASTEIGER

@<TRIPOS>ATOM
      1 C           5.6835   -0.7698   15.0550 C.2     1  UNL1       -0.0658
      2 C           6.0529   -1.7123   16.0239 C.2     1  UNL1       -0.0658
      3 C           7.2272   -2.4145   15.5544 C.3     1  UNL1        0.0052
      4 C           7.5288   -1.9329   14.2327 C.3     1  UNL1       -0.0053
      5 C           6.6161   -0.8573   13.9518 C.3     1  UNL1        0.0052
      6 C           4.4864    0.1168   15.0446 C.3     1  UNL1       -0.0430
      7 C           5.3442   -2.0612   17.2869 C.3     1  UNL1       -0.0430
      8 C           7.7892   -3.6208   16.2322 C.3     1  UNL1       -0.0545
      9 C           8.4670   -2.5759   13.2551 C.3     1  UNL1       -0.0574
     10 C           6.4265   -0.1391   12.6560 C.3     1  UNL1       -0.0545
     11 H           3.7706   -0.2407   14.3019 H       1  UNL1        0.0275
     12 H           4.7741    1.1327   14.7751 H       1  UNL1        0.0275
     13 H           3.9988    0.1390   16.0153 H       1  UNL1        0.0275
     14 H           6.0512   -2.0995   18.1153 H       1  UNL1        0.0275
     15 H           4.8828   -3.0455   17.1902 H       1  UNL1        0.0275
     16 H           4.5700   -1.3363   17.5221 H       1  UNL1        0.0275
     17 H           7.9118   -3.4223   17.2973 H       1  UNL1        0.0239
     18 H           8.7486   -3.9062   15.8077 H       1  UNL1        0.0239
     19 H           7.1000   -4.4600   16.1226 H       1  UNL1        0.0239
     20 H           9.3288   -3.0068   13.7585 H       1  UNL1        0.0236
     21 H           8.8203   -1.8601   12.5175 H       1  UNL1        0.0236
     22 H           7.9424   -3.3768   12.7307 H       1  UNL1        0.0236
     23 H           5.5704   -0.5573   12.1240 H       1  UNL1        0.0239
     24 H           7.3036   -0.2256   12.0195 H       1  UNL1        0.0239
     25 H           6.2247    0.9155   12.8451 H       1  UNL1        0.0239
@<TRIPOS>BOND
     1    24    10    1
     2    23    10    1
     3    21     9    1
     4    10    25    1
     5    10     5    1
     6    22     9    1
     7     9    20    1
     8     9     4    1
     9     5     4    1
    10     5     1    1
    11     4     3    1
    12    11     6    1
    13    12     6    1
    14     6     1    1
    15     6    13    1
    16     1     2    2
    17     3     2    1
    18     3     8    1
    19    18     8    1
    20     2     7    1
    21    19     8    1
    22     8    17    1
    23    15     7    1
    24     7    16    1
    25     7    14    1
