@<TRIPOS>MOLECULE
1,2,3,4,5
 25 25 0 0 0
SMALL
GASTEIGER

@<TRIPOS>ATOM
      1 C           4.4845    4.6417   13.6883 C.3     1  UNL1       -0.0053
      2 C           5.8862    4.9790   13.6014 C.3     1  UNL1        0.0052
      3 C           6.5938    3.7995   13.1920 C.2     1  UNL1       -0.0658
      4 C           5.6424    2.7811   12.9265 C.2     1  UNL1       -0.0658
      5 C           4.3318    3.3026   13.2586 C.3     1  UNL1        0.0052
      6 C           3.4408    5.5145   14.3198 C.3     1  UNL1       -0.0574
      7 H           3.5732    6.5579   14.0336 H       1  UNL1        0.0236
      8 H           3.5200    5.4474   15.4072 H       1  UNL1        0.0236
      9 H           2.4369    5.2090   14.0316 H       1  UNL1        0.0236
     10 C           6.5333    6.1560   14.2678 C.3     1  UNL1       -0.0545
     11 H           7.4618    6.4275   13.7688 H       1  UNL1        0.0239
     12 H           6.7677    5.9016   15.3050 H       1  UNL1        0.0239
     13 H           5.8741    7.0215   14.2720 H       1  UNL1        0.0239
     14 C           8.0849    3.6720   13.2506 C.3     1  UNL1       -0.0430
     15 H           8.4148    2.6964   12.9061 H       1  UNL1        0.0275
     16 H           8.4117    3.8009   14.2847 H       1  UNL1        0.0275
     17 H           8.5701    4.4348   12.6431 H       1  UNL1        0.0275
     18 C           5.9014    1.3346   12.6283 C.3     1  UNL1       -0.0430
     19 H           5.2597    0.9894   11.8174 H       1  UNL1        0.0275
     20 H           5.6847    0.7299   13.5121 H       1  UNL1        0.0275
     21 H           6.9364    1.1671   12.3387 H       1  UNL1        0.0275
     22 C           3.0962    2.4568   13.3210 C.3     1  UNL1       -0.0545
     23 H           2.2146    3.0566   13.5394 H       1  UNL1        0.0239
     24 H           3.2054    1.7063   14.1070 H       1  UNL1        0.0239
     25 H           2.9344    1.9332   12.3782 H       1  UNL1        0.0239
@<TRIPOS>BOND
     1    19    18    1
     2    21    18    1
     3    25    22    1
     4    18     4    1
     5    18    20    1
     6    17    14    1
     7    15    14    1
     8     4     3    2
     9     4     5    1
    10     3    14    1
    11     3     2    1
    12    14    16    1
    13     5    22    1
    14     5     1    1
    15    22    23    1
    16    22    24    1
    17     2     1    1
    18     2    10    1
    19     1     6    1
    20    11    10    1
    21     9     6    1
    22     7     6    1
    23    10    13    1
    24    10    12    1
    25     6     8    1
