@<TRIPOS>MOLECULE
1,2,3,4,5
 10 10 0 0 0
SMALL
GASTEIGER

@<TRIPOS>ATOM
      1 C           2.1921    6.9105    4.7809 C.2     1  UNL1       -0.0763
      2 C           1.3047    7.1208    3.6999 C.3     1  UNL1        0.0054
      3 C           1.9606    6.7143    2.5177 C.2     1  UNL1       -0.0763
      4 C           3.2393    6.2444    2.8699 C.2     1  UNL1       -0.0654
      5 C           3.3832    6.3663    4.2642 C.2     1  UNL1       -0.0654
      6 H           2.0297    7.2413    5.7996 H       1  UNL1        0.0578
      7 H           0.3525    7.6381    3.7527 H       1  UNL1        0.0394
      8 H           1.5867    6.8533    1.5117 H       1  UNL1        0.0578
      9 H           4.0172    5.9424    2.1796 H       1  UNL1        0.0615
     10 H           4.2894    6.1768    4.8250 H       1  UNL1        0.0615
@<TRIPOS>BOND
     1     8     3    1
     2     9     4    1
     3     3     4    2
     4     3     2    1
     5     4     5    1
     6     2     7    1
     7     2     1    1
     8     5     1    2
     9     5    10    1
    10     1     6    1
