@<TRIPOS>MOLECULE
1,2,3,4,5
 10 10 0 0 0
SMALL
GASTEIGER

@<TRIPOS>ATOM
      1 C          17.3277    7.0335    7.6310 C.2     1  UNL1       -0.0763
      2 C          17.2093    8.2407    8.3545 C.3     1  UNL1        0.0054
      3 C          15.9638    8.8218    8.0296 C.2     1  UNL1       -0.0763
      4 C          15.3149    7.9735    7.1077 C.2     1  UNL1       -0.0654
      5 C          16.1538    6.8678    6.8644 C.2     1  UNL1       -0.0654
      6 H          18.2215    6.4225    7.5709 H       1  UNL1        0.0578
      7 H          17.9891    8.7022    8.9501 H       1  UNL1        0.0394
      8 H          15.6362    9.8131    8.3201 H       1  UNL1        0.0578
      9 H          14.3881    8.1919    6.5902 H       1  UNL1        0.0615
     10 H          15.9838    6.0948    6.1237 H       1  UNL1        0.0615
@<TRIPOS>BOND
     1    10     5    1
     2     9     4    1
     3     5     4    1
     4     5     1    2
     5     4     3    2
     6     6     1    1
     7     1     2    1
     8     3     8    1
     9     3     2    1
    10     2     7    1
