@<TRIPOS>MOLECULE
1,2,3,4,5
 58 58 0 0 0
SMALL
GASTEIGER

@<TRIPOS>ATOM
      1 C          -2.0613    5.6298    5.7129 C.2     1  UNL1        0.0000
      2 C          -1.8791    6.5092    4.5904 C.2     1  UNL1        0.0000
      3 C          -0.4642    6.5922    4.3091 C.2     1  UNL1        0.0000
      4 C           0.2240    5.7380    5.2464 C.2     1  UNL1        0.0000
      5 C          -0.7675    5.1715    6.0824 C.3     1  UNL1        0.0000
      6 SI         -3.5284    5.2593    6.8618 Si      1  UNL1        0.0000
      7 C          -4.2868    6.8960    7.4851 C.3     1  UNL1        0.0000
      8 C          -2.8366    4.3768    8.4121 C.3     1  UNL1        0.0000
      9 C          -4.7865    4.0557    6.0706 C.3     1  UNL1        0.0000
     10 SI         -3.2951    7.4583    3.7241 Si      1  UNL1        0.0000
     11 C          -3.4601    9.1758    4.5587 C.3     1  UNL1        0.0000
     12 C          -5.0023    6.6118    3.8575 C.3     1  UNL1        0.0000
     13 C          -3.0310    7.5461    1.8295 C.3     1  UNL1        0.0000
     14 SI          0.4279    7.8600    3.1946 Si      1  UNL1        0.0000
     15 C           2.0501    8.4834    3.9902 C.3     1  UNL1        0.0000
     16 C           0.7834    7.0703    1.4856 C.3     1  UNL1        0.0000
     17 C          -0.4909    9.5199    2.9766 C.3     1  UNL1        0.0000
     18 SI          2.0401    5.3268    5.6492 Si      1  UNL1        0.0000
     19 C           2.6614    6.5558    6.9726 C.3     1  UNL1        0.0000
     20 C           2.0271    3.5953    6.4653 C.3     1  UNL1        0.0000
     21 C           3.2012    5.1844    4.1396 C.3     1  UNL1        0.0000
     22 H          -0.5561    4.5945    6.9716 H       1  UNL1        0.0000
     23 H          -3.6116    7.3991    8.1712 H       1  UNL1        0.0000
     24 H          -4.5183    7.5912    6.6875 H       1  UNL1        0.0000
     25 H          -5.2054    6.6920    8.0264 H       1  UNL1        0.0000
     26 H          -2.0811    4.9677    8.9229 H       1  UNL1        0.0000
     27 H          -3.6365    4.1937    9.1240 H       1  UNL1        0.0000
     28 H          -2.3992    3.4132    8.1658 H       1  UNL1        0.0000
     29 H          -4.4638    3.7295    5.0845 H       1  UNL1        0.0000
     30 H          -4.8948    3.1662    6.6845 H       1  UNL1        0.0000
     31 H          -5.7714    4.4986    5.9674 H       1  UNL1        0.0000
     32 H          -4.4672    9.3124    4.9397 H       1  UNL1        0.0000
     33 H          -2.7746    9.3065    5.3900 H       1  UNL1        0.0000
     34 H          -3.2787    9.9787    3.8539 H       1  UNL1        0.0000
     35 H          -5.4062    6.6084    4.8621 H       1  UNL1        0.0000
     36 H          -5.7084    7.1451    3.2260 H       1  UNL1        0.0000
     37 H          -4.9702    5.5855    3.5078 H       1  UNL1        0.0000
     38 H          -3.6314    6.7853    1.3391 H       1  UNL1        0.0000
     39 H          -3.3477    8.5065    1.4325 H       1  UNL1        0.0000
     40 H          -2.0026    7.3826    1.5291 H       1  UNL1        0.0000
     41 H           1.8566    8.9563    4.9485 H       1  UNL1        0.0000
     42 H           2.7966    7.7162    4.1396 H       1  UNL1        0.0000
     43 H           2.4874    9.2396    3.3441 H       1  UNL1        0.0000
     44 H           0.5629    7.7635    0.6789 H       1  UNL1        0.0000
     45 H           1.8283    6.7901    1.3874 H       1  UNL1        0.0000
     46 H           0.1916    6.1711    1.3231 H       1  UNL1        0.0000
     47 H          -0.7488    9.9599    3.9337 H       1  UNL1        0.0000
     48 H           0.1763   10.2149    2.4742 H       1  UNL1        0.0000
     49 H          -1.3924    9.4543    2.3850 H       1  UNL1        0.0000
     50 H           2.7825    7.5635    6.5935 H       1  UNL1        0.0000
     51 H           1.9817    6.6022    7.8188 H       1  UNL1        0.0000
     52 H           3.6264    6.2291    7.3473 H       1  UNL1        0.0000
     53 H           1.4492    2.8851    5.8772 H       1  UNL1        0.0000
     54 H           3.0368    3.2035    6.5496 H       1  UNL1        0.0000
     55 H           1.6082    3.6138    7.4675 H       1  UNL1        0.0000
     56 H           3.4373    4.1419    3.9476 H       1  UNL1        0.0000
     57 H           2.7648    5.5839    3.2310 H       1  UNL1        0.0000
     58 H           4.1398    5.7013    4.3168 H       1  UNL1        0.0000
@<TRIPOS>BOND
     1    44    16    1
     2    46    16    1
     3    38    13    1
     4    45    16    1
     5    39    13    1
     6    16    14    1
     7    40    13    1
     8    13    10    1
     9    49    17    1
    10    48    17    1
    11    17    14    1
    12    17    47    1
    13    14    15    1
    14    14     3    1
    15    36    12    1
    16    57    21    1
    17    43    15    1
    18    37    12    1
    19    10    12    1
    20    10    11    1
    21    10     2    1
    22    34    11    1
    23    12    35    1
    24    56    21    1
    25    15    42    1
    26    15    41    1
    27    21    58    1
    28    21    18    1
    29     3     2    1
    30     3     4    2
    31    11    32    1
    32    11    33    1
    33     2     1    2
    34    29     9    1
    35     4    18    1
    36     4     5    1
    37    18    20    1
    38    18    19    1
    39     1     5    1
    40     1     6    1
    41    53    20    1
    42    31     9    1
    43     9    30    1
    44     9     6    1
    45     5    22    1
    46    20    54    1
    47    20    55    1
    48    50    19    1
    49    24     7    1
    50     6     7    1
    51     6     8    1
    52    19    52    1
    53    19    51    1
    54     7    25    1
    55     7    23    1
    56    28     8    1
    57     8    26    1
    58     8    27    1
