@<TRIPOS>MOLECULE
1,2,3,4,5
 25 25 0 0 0
SMALL
GASTEIGER

@<TRIPOS>ATOM
      1 C           5.9199    4.2360    4.7758 C.3     1  UNL1       -0.0053
      2 C           4.5109    3.7507    3.0008 C.2     1  UNL1       -0.0658
      3 C           4.5736    4.5650    5.1616 C.3     1  UNL1        0.0052
      4 C           3.7222    4.3246    4.0334 C.2     1  UNL1       -0.0658
      5 C           5.8820    3.7086    3.4591 C.3     1  UNL1        0.0052
      6 C           2.2817    4.7258    3.9605 C.3     1  UNL1       -0.0430
      7 H           1.8914    4.6046    2.9526 H       1  UNL1        0.0275
      8 H           2.1766    5.7711    4.2532 H       1  UNL1        0.0275
      9 H           1.6746    4.1180    4.6344 H       1  UNL1        0.0275
     10 C           7.1374    4.6003    5.5661 C.3     1  UNL1       -0.0574
     11 H           6.9770    4.4427    6.6328 H       1  UNL1        0.0236
     12 H           7.3673    5.6568    5.4095 H       1  UNL1        0.0236
     13 H           7.9981    4.0098    5.2607 H       1  UNL1        0.0236
     14 C           7.0436    3.4572    2.5496 C.3     1  UNL1       -0.0545
     15 H           7.9726    3.4020    3.1084 H       1  UNL1        0.0239
     16 H           7.1217    4.2744    1.8285 H       1  UNL1        0.0239
     17 H           6.9154    2.5287    1.9923 H       1  UNL1        0.0239
     18 C           4.2160    5.3832    6.3656 C.3     1  UNL1       -0.0545
     19 H           3.1443    5.3588    6.5443 H       1  UNL1        0.0239
     20 H           4.5198    6.4217    6.2089 H       1  UNL1        0.0239
     21 H           4.7227    5.0101    7.2553 H       1  UNL1        0.0239
     22 C           4.1315    3.5311    1.5671 C.3     1  UNL1       -0.0430
     23 H           4.4205    2.5340    1.2313 H       1  UNL1        0.0275
     24 H           4.6465    4.2622    0.9395 H       1  UNL1        0.0275
     25 H           3.0612    3.6432    1.4191 H       1  UNL1        0.0275
@<TRIPOS>BOND
     1    24    22    1
     2    23    22    1
     3    25    22    1
     4    22     2    1
     5    16    14    1
     6    17    14    1
     7    14    15    1
     8    14     5    1
     9     7     6    1
    10     2     5    1
    11     2     4    2
    12     5     1    1
    13     6     4    1
    14     6     8    1
    15     6     9    1
    16     4     3    1
    17     1     3    1
    18     1    10    1
    19     3    18    1
    20    13    10    1
    21    12    10    1
    22    10    11    1
    23    20    18    1
    24    18    19    1
    25    18    21    1
