@<TRIPOS>MOLECULE
1,2,3,4,5
 25 25 0 0 0
SMALL
GASTEIGER

@<TRIPOS>ATOM
      1 C           7.4828    8.9482   14.1868 C.2     1  UNL1       -0.0658
      2 C           6.6755    9.1929   15.3465 C.3     1  UNL1        0.0052
      3 C           5.3148    8.8666   15.0130 C.3     1  UNL1       -0.0053
      4 C           5.3012    8.3361   13.6971 C.3     1  UNL1        0.0052
      5 C           6.6537    8.3747   13.1862 C.2     1  UNL1       -0.0658
      6 C           8.9204    9.3456   14.0586 C.3     1  UNL1       -0.0430
      7 H           9.5509    8.7380   14.7108 H       1  UNL1        0.0275
      8 H           9.0390   10.3913   14.3444 H       1  UNL1        0.0275
      9 H           9.2722    9.2207   13.0370 H       1  UNL1        0.0275
     10 C           7.0810   10.0132   16.5336 C.3     1  UNL1       -0.0545
     11 H           6.6069    9.6446   17.4429 H       1  UNL1        0.0239
     12 H           6.7750   11.0523   16.3852 H       1  UNL1        0.0239
     13 H           8.1585    9.9857   16.6718 H       1  UNL1        0.0239
     14 C           4.1290    9.2353   15.8481 C.3     1  UNL1       -0.0574
     15 H           3.2560    8.6463   15.5767 H       1  UNL1        0.0236
     16 H           3.8957   10.2921   15.6979 H       1  UNL1        0.0236
     17 H           4.3292    9.0797   16.9083 H       1  UNL1        0.0236
     18 C           4.1049    8.0854   12.8335 C.3     1  UNL1       -0.0545
     19 H           4.2140    7.1600   12.2669 H       1  UNL1        0.0239
     20 H           3.9954    8.9059   12.1203 H       1  UNL1        0.0239
     21 H           3.1992    8.0240   13.4284 H       1  UNL1        0.0239
     22 C           6.9766    8.1539   11.7389 C.3     1  UNL1       -0.0430
     23 H           8.0406    8.2634   11.5495 H       1  UNL1        0.0275
     24 H           6.4394    8.8865   11.1320 H       1  UNL1        0.0275
     25 H           6.6722    7.1576   11.4146 H       1  UNL1        0.0275
@<TRIPOS>BOND
     1    24    22    1
     2    25    22    1
     3    23    22    1
     4    22     5    1
     5    20    18    1
     6    19    18    1
     7    18    21    1
     8    18     4    1
     9     9     6    1
    10     5     4    1
    11     5     1    2
    12     4     3    1
    13     6     1    1
    14     6     8    1
    15     6     7    1
    16     1     2    1
    17     3     2    1
    18     3    14    1
    19     2    10    1
    20    15    14    1
    21    16    14    1
    22    14    17    1
    23    12    10    1
    24    10    13    1
    25    10    11    1
