@<TRIPOS>MOLECULE
2,3,4,5,6
 22 22 0 0 0
SMALL
GASTEIGER

@<TRIPOS>ATOM
      1 SI          8.1068    1.4080    4.5533 Si      1  UNL1        0.0000
      2 C           7.4779    3.0740    5.1701 C.2     1  UNL1        0.0000
      3 C           8.2775    4.1929    5.5248 C.2     1  UNL1        0.0000
      4 C           7.4660    5.1519    6.1553 C.2     1  UNL1        0.0000
      5 C           6.1531    4.6414    6.2049 C.2     1  UNL1        0.0000
      6 C           6.1615    3.3682    5.6096 C.3     1  UNL1        0.0000
      7 C           8.6344    0.3695    6.0698 C.3     1  UNL1        0.0000
      8 C           9.5999    1.6889    3.3981 C.3     1  UNL1        0.0000
      9 C           6.6992    0.5098    3.6239 C.3     1  UNL1        0.0000
     10 H           9.3522    4.2553    5.4169 H       1  UNL1        0.0000
     11 H           7.8097    6.0762    6.6017 H       1  UNL1        0.0000
     12 H           5.3197    5.0977    6.7261 H       1  UNL1        0.0000
     13 H           5.3400    2.6620    5.6261 H       1  UNL1        0.0000
     14 H           9.4232    0.8625    6.6293 H       1  UNL1        0.0000
     15 H           9.0080   -0.6002    5.7579 H       1  UNL1        0.0000
     16 H           7.8064    0.1999    6.7514 H       1  UNL1        0.0000
     17 H           9.3345    2.3454    2.5733 H       1  UNL1        0.0000
     18 H           9.9556    0.7515    2.9818 H       1  UNL1        0.0000
     19 H          10.4296    2.1457    3.9291 H       1  UNL1        0.0000
     20 H           6.2933    1.1383    2.8349 H       1  UNL1        0.0000
     21 H           5.8839    0.2423    4.2907 H       1  UNL1        0.0000
     22 H           7.0543   -0.4074    3.1644 H       1  UNL1        0.0000
@<TRIPOS>BOND
     1    17     8    1
     2    20     9    1
     3    18     8    1
     4    22     9    1
     5     8    19    1
     6     8     1    1
     7     9    21    1
     8     9     1    1
     9     1     2    1
    10     1     7    1
    11     2     3    2
    12     2     6    1
    13    10     3    1
    14     3     4    1
    15     6    13    1
    16     6     5    1
    17    15     7    1
    18     7    14    1
    19     7    16    1
    20     4     5    2
    21     4    11    1
    22     5    12    1
