@<TRIPOS>MOLECULE
2,3,4,5,6
 22 22 0 0 0
SMALL
GASTEIGER

@<TRIPOS>ATOM
      1 SI          3.6207    7.6358    3.5749 Si      1  UNL1        0.0000
      2 C           3.9908    5.8068    3.3225 C.2     1  UNL1        0.0000
      3 C           3.5550    4.7218    4.0973 C.2     1  UNL1        0.0000
      4 C           3.7852    3.5258    3.3967 C.2     1  UNL1        0.0000
      5 C           4.3676    3.8395    2.1704 C.2     1  UNL1        0.0000
      6 C           4.5615    5.2498    2.1253 C.3     1  UNL1        0.0000
      7 C           4.6477    8.6544    2.3268 C.3     1  UNL1        0.0000
      8 C           1.7554    7.9070    3.2522 C.3     1  UNL1        0.0000
      9 C           4.0123    8.1698    5.3700 C.3     1  UNL1        0.0000
     10 H           3.0586    4.7982    5.0540 H       1  UNL1        0.0000
     11 H           3.5016    2.5363    3.7242 H       1  UNL1        0.0000
     12 H           4.5778    3.1505    1.3633 H       1  UNL1        0.0000
     13 H           4.7116    5.8191    1.2121 H       1  UNL1        0.0000
     14 H           4.6429    9.7104    2.5787 H       1  UNL1        0.0000
     15 H           4.2527    8.5606    1.3191 H       1  UNL1        0.0000
     16 H           5.6832    8.3199    2.3044 H       1  UNL1        0.0000
     17 H           1.4929    8.9529    3.3722 H       1  UNL1        0.0000
     18 H           1.1435    7.3325    3.9406 H       1  UNL1        0.0000
     19 H           1.4805    7.6107    2.2449 H       1  UNL1        0.0000
     20 H           3.8152    9.2275    5.5163 H       1  UNL1        0.0000
     21 H           5.0566    7.9909    5.6133 H       1  UNL1        0.0000
     22 H           3.4045    7.6253    6.0877 H       1  UNL1        0.0000
@<TRIPOS>BOND
     1    13     6    1
     2    15     7    1
     3    12     5    1
     4     6     5    1
     5     6     2    1
     6     5     4    2
     7    19     8    1
     8    16     7    1
     9     7    14    1
    10     7     1    1
    11     8    17    1
    12     8     1    1
    13     8    18    1
    14     2     1    1
    15     2     3    2
    16     4    11    1
    17     4     3    1
    18     1     9    1
    19     3    10    1
    20     9    20    1
    21     9    21    1
    22     9    22    1
