@<TRIPOS>MOLECULE
1,2,3,4,5
 25 25 0 0 0
SMALL
GASTEIGER

@<TRIPOS>ATOM
      1 C           8.8568    9.9228    3.4090 C.3     1  UNL1        0.0231
      2 C           9.6815    9.3214    2.3895 C.2     1  UNL1       -0.0584
      3 C          11.0321    9.6614    2.6667 C.2     1  UNL1       -0.0477
      4 C          11.0548   10.4685    3.8455 C.2     1  UNL1       -0.0477
      5 C           9.7221   10.6670    4.2812 C.2     1  UNL1       -0.0584
      6 C           7.3566    9.9973    3.3604 C.3     1  UNL1       -0.0510
      7 C           9.1626    8.6110    1.1737 C.3     1  UNL1       -0.0424
      8 C          12.1997    9.4499    1.7495 C.3     1  UNL1       -0.0395
      9 C          12.2733   11.1561    4.3863 C.3     1  UNL1       -0.0395
     10 C           9.2734   11.6622    5.3113 C.3     1  UNL1       -0.0424
     11 H           7.0371   10.7500    2.6362 H       1  UNL1        0.0242
     12 H           6.9439   10.2620    4.3324 H       1  UNL1        0.0242
     13 H           6.9342    9.0375    3.0621 H       1  UNL1        0.0242
     14 H           8.8517    9.3335    0.4160 H       1  UNL1        0.0275
     15 H           9.9267    7.9674    0.7414 H       1  UNL1        0.0275
     16 H           8.3010    7.9940    1.4277 H       1  UNL1        0.0275
     17 H          12.3090   10.3179    1.0950 H       1  UNL1        0.0278
     18 H          13.1279    9.3298    2.3053 H       1  UNL1        0.0278
     19 H          12.0616    8.5694    1.1255 H       1  UNL1        0.0278
     20 H          12.4658   12.0745    3.8269 H       1  UNL1        0.0278
     21 H          12.1465   11.4240    5.4344 H       1  UNL1        0.0278
     22 H          13.1549   10.5212    4.2966 H       1  UNL1        0.0278
     23 H           9.1584   12.6427    4.8432 H       1  UNL1        0.0275
     24 H           9.9971   11.7607    6.1187 H       1  UNL1        0.0275
     25 H           8.3151   11.3825    5.7450 H       1  UNL1        0.0275
@<TRIPOS>BOND
     1    14     7    1
     2    15     7    1
     3    17     8    1
     4    19     8    1
     5     7    16    1
     6     7     2    1
     7     8    18    1
     8     8     3    1
     9     2     3    2
    10     2     1    1
    11    11     6    1
    12     3     4    1
    13    13     6    1
    14     6     1    1
    15     6    12    1
    16     1     5    1
    17    20     9    1
    18     4     5    2
    19     4     9    1
    20     5    10    1
    21    22     9    1
    22     9    21    1
    23    23    10    1
    24    10    25    1
    25    10    24    1
