@<TRIPOS>MOLECULE
1,2,3,4,5
 10 10 0 0 0
SMALL
GASTEIGER

@<TRIPOS>ATOM
      1 C          18.3365    1.7927    5.6667 C.2     1  UNL1       -0.0837
      2 C          18.8326    1.8670    4.3497 C.3     1  UNL1       -0.0127
      3 C          18.3949    0.7196    3.6575 C.3     1  UNL1       -0.0235
      4 C          17.6190   -0.0562    4.5474 C.3     1  UNL1       -0.0127
      5 C          17.6031    0.6019    5.7907 C.2     1  UNL1       -0.0837
      6 H          18.5859    2.4699    6.4702 H       1  UNL1        0.0572
      7 H          19.5482    2.5870    3.9837 H       1  UNL1        0.0352
      8 H          18.7691    0.3910    2.7005 H       1  UNL1        0.0315
      9 H          17.2629   -1.0615    4.3685 H       1  UNL1        0.0352
     10 H          17.1935    0.2004    6.7031 H       1  UNL1        0.0572
@<TRIPOS>BOND
     1     8     3    1
     2     3     2    1
     3     3     4    1
     4     7     2    1
     5     2     1    1
     6     9     4    1
     7     4     5    1
     8     1     5    2
     9     1     6    1
    10     5    10    1
