@<TRIPOS>MOLECULE
1,2,3,4,5
 25 25 0 0 0
SMALL
GASTEIGER

@<TRIPOS>ATOM
      1 C          14.3668    2.5018    2.3835 C.2     1  UNL1       -0.0477
      2 C          15.4924    3.2336    1.9328 C.2     1  UNL1       -0.0584
      3 C          16.5110    2.3079    1.5712 C.3     1  UNL1        0.0231
      4 C          15.9938    0.9951    1.7791 C.2     1  UNL1       -0.0584
      5 C          14.6774    1.1222    2.3024 C.2     1  UNL1       -0.0477
      6 C          13.0498    3.1391    2.7197 C.3     1  UNL1       -0.0395
      7 C          15.4804    4.7060    1.6460 C.3     1  UNL1       -0.0424
      8 C          17.7959    2.6945    0.8865 C.3     1  UNL1       -0.0510
      9 C          16.5315   -0.2964    1.2227 C.3     1  UNL1       -0.0424
     10 C          13.7409   -0.0356    2.5095 C.3     1  UNL1       -0.0395
     11 H          12.5944    3.5528    1.8175 H       1  UNL1        0.0278
     12 H          13.1925    3.9596    3.4233 H       1  UNL1        0.0278
     13 H          12.3487    2.4236    3.1443 H       1  UNL1        0.0278
     14 H          14.8307    4.9095    0.7913 H       1  UNL1        0.0275
     15 H          16.4780    5.0587    1.4026 H       1  UNL1        0.0275
     16 H          15.1042    5.2718    2.4973 H       1  UNL1        0.0275
     17 H          17.5852    3.1291   -0.0931 H       1  UNL1        0.0242
     18 H          18.4436    1.8344    0.7314 H       1  UNL1        0.0242
     19 H          18.3418    3.4361    1.4727 H       1  UNL1        0.0242
     20 H          15.8566   -0.6621    0.4457 H       1  UNL1        0.0275
     21 H          16.6098   -1.0798    1.9771 H       1  UNL1        0.0275
     22 H          17.5087   -0.1594    0.7660 H       1  UNL1        0.0275
     23 H          13.3819   -0.4089    1.5474 H       1  UNL1        0.0278
     24 H          12.8725    0.2555    3.0960 H       1  UNL1        0.0278
     25 H          14.2369   -0.8627    3.0181 H       1  UNL1        0.0278
@<TRIPOS>BOND
     1    17     8    1
     2    20     9    1
     3    18     8    1
     4    22     9    1
     5    14     7    1
     6     8    19    1
     7     8     3    1
     8     9     4    1
     9     9    21    1
    10    15     7    1
    11    23    10    1
    12     3     4    1
    13     3     2    1
    14     7     2    1
    15     7    16    1
    16     4     5    2
    17    11     6    1
    18     2     1    2
    19     5     1    1
    20     5    10    1
    21     1     6    1
    22    10    25    1
    23    10    24    1
    24     6    13    1
    25     6    12    1
