@<TRIPOS>MOLECULE
1,2,3,4,5
 10 10 0 0 0
SMALL
GASTEIGER

@<TRIPOS>ATOM
      1 C           7.7232   13.3068    2.6809 C.2     1  UNL1       -0.0763
      2 C           6.7351   13.4063    1.6767 C.2     1  UNL1       -0.0654
      3 C           5.4945   13.6626    2.3091 C.2     1  UNL1       -0.0654
      4 C           5.7216   13.7254    3.6974 C.2     1  UNL1       -0.0763
      5 C           7.0911   13.4875    3.9337 C.3     1  UNL1        0.0054
      6 H           8.7896   13.2584    2.5016 H       1  UNL1        0.0578
      7 H           6.9294   13.4443    0.6112 H       1  UNL1        0.0615
      8 H           4.5635   13.9161    1.8137 H       1  UNL1        0.0615
      9 H           4.9889   13.9938    4.4477 H       1  UNL1        0.0578
     10 H           7.5810   13.5585    4.8990 H       1  UNL1        0.0394
@<TRIPOS>BOND
     1     7     2    1
     2     2     3    1
     3     2     1    2
     4     8     3    1
     5     3     4    2
     6     6     1    1
     7     1     5    1
     8     4     5    1
     9     4     9    1
    10     5    10    1
