@<TRIPOS>MOLECULE
1,2,3,4,5
 10 10 0 0 0
SMALL
GASTEIGER

@<TRIPOS>ATOM
      1 C           6.1776   10.1880    0.7280 C.2     1  UNL1       -0.0763
      2 C           5.0451   11.0321    0.7407 C.2     1  UNL1       -0.0654
      3 C           4.1519   10.5541    1.7221 C.2     1  UNL1       -0.0654
      4 C           4.7156    9.3910    2.2923 C.2     1  UNL1       -0.0763
      5 C           5.9629    9.1629    1.6819 C.3     1  UNL1        0.0054
      6 H           6.9759   10.2214   -0.0031 H       1  UNL1        0.0578
      7 H           4.8347   11.8136    0.0204 H       1  UNL1        0.0615
      8 H           3.1552   10.9319    1.9210 H       1  UNL1        0.0615
      9 H           4.2246    8.7431    3.0080 H       1  UNL1        0.0578
     10 H           6.5834    8.2870    1.8304 H       1  UNL1        0.0394
@<TRIPOS>BOND
     1     6     1    1
     2     7     2    1
     3     1     2    2
     4     1     5    1
     5     2     3    1
     6     5    10    1
     7     5     4    1
     8     3     8    1
     9     3     4    2
    10     4     9    1
