@<TRIPOS>MOLECULE
1,2,3,4,5
 25 25 0 0 0
SMALL
GASTEIGER

@<TRIPOS>ATOM
      1 C          -1.3948    7.0876    2.7997 C.3     1  UNL1        0.0052
      2 C          -0.9636    7.2172    4.1545 C.2     1  UNL1       -0.0658
      3 C          -1.5742    8.3745    4.7173 C.2     1  UNL1       -0.0658
      4 C          -2.4686    8.9203    3.7269 C.3     1  UNL1        0.0052
      5 C          -2.3748    8.1171    2.5592 C.3     1  UNL1       -0.0053
      6 C          -1.2083    5.8348    1.9927 C.3     1  UNL1       -0.0545
      7 C          -0.2681    6.1577    4.9475 C.3     1  UNL1       -0.0430
      8 C          -1.6275    8.6218    6.1968 C.3     1  UNL1       -0.0430
      9 C          -3.5842    9.8864    3.9985 C.3     1  UNL1       -0.0545
     10 C          -3.4060    8.0946    1.4702 C.3     1  UNL1       -0.0574
     11 H          -1.7369    5.0107    2.4778 H       1  UNL1        0.0239
     12 H          -1.6064    5.9419    0.9858 H       1  UNL1        0.0239
     13 H          -0.1546    5.5681    1.9237 H       1  UNL1        0.0239
     14 H          -1.0246    5.5202    5.4135 H       1  UNL1        0.0275
     15 H           0.3602    5.5377    4.3142 H       1  UNL1        0.0275
     16 H           0.3422    6.5920    5.7360 H       1  UNL1        0.0275
     17 H          -2.1214    7.7739    6.6776 H       1  UNL1        0.0275
     18 H          -0.6275    8.7089    6.6185 H       1  UNL1        0.0275
     19 H          -2.1908    9.5191    6.4384 H       1  UNL1        0.0275
     20 H          -4.4406    9.3388    4.4012 H       1  UNL1        0.0239
     21 H          -3.3013   10.6450    4.7258 H       1  UNL1        0.0239
     22 H          -3.9072   10.3868    3.0867 H       1  UNL1        0.0239
     23 H          -4.2915    7.5720    1.8425 H       1  UNL1        0.0236
     24 H          -3.7114    9.0971    1.1756 H       1  UNL1        0.0236
     25 H          -3.0524    7.5612    0.5902 H       1  UNL1        0.0236
@<TRIPOS>BOND
     1    25    10    1
     2    12     6    1
     3    24    10    1
     4    10    23    1
     5    10     5    1
     6    13     6    1
     7     6    11    1
     8     6     1    1
     9     5     1    1
    10     5     4    1
    11     1     2    1
    12    22     9    1
    13     4     9    1
    14     4     3    1
    15     9    20    1
    16     9    21    1
    17     2     3    2
    18     2     7    1
    19    15     7    1
    20     3     8    1
    21     7    14    1
    22     7    16    1
    23     8    19    1
    24     8    18    1
    25     8    17    1
