@<TRIPOS>MOLECULE
1,2,3,4,5
 25 25 0 0 0
SMALL
GASTEIGER

@<TRIPOS>ATOM
      1 C          16.5566    3.9503   -0.1955 C.2     1  UNL1       -0.0658
      2 C          16.1287    5.2171   -0.6875 C.2     1  UNL1       -0.0658
      3 C          15.6299    5.9759    0.4340 C.3     1  UNL1        0.0052
      4 C          15.7458    5.1654    1.5984 C.3     1  UNL1       -0.0053
      5 C          16.2678    3.8825    1.2037 C.3     1  UNL1        0.0052
      6 C          17.4166    2.9855   -0.9466 C.3     1  UNL1       -0.0430
      7 C          16.5787    5.7647   -2.0089 C.3     1  UNL1       -0.0430
      8 C          15.3972    7.4566    0.4458 C.3     1  UNL1       -0.0545
      9 C          15.7058    5.6798    3.0044 C.3     1  UNL1       -0.0574
     10 C          16.8532    2.8400    2.1093 C.3     1  UNL1       -0.0545
     11 H          17.3037    1.9711   -0.5696 H       1  UNL1        0.0275
     12 H          18.4611    3.2794   -0.8190 H       1  UNL1        0.0275
     13 H          17.1916    2.9977   -2.0109 H       1  UNL1        0.0275
     14 H          16.1891    6.7619   -2.1906 H       1  UNL1        0.0275
     15 H          16.2863    5.1152   -2.8329 H       1  UNL1        0.0275
     16 H          17.6690    5.8273   -2.0061 H       1  UNL1        0.0275
     17 H          14.7162    7.7469    1.2441 H       1  UNL1        0.0239
     18 H          14.9896    7.8114   -0.4988 H       1  UNL1        0.0239
     19 H          16.3484    7.9663    0.6143 H       1  UNL1        0.0239
     20 H          15.4480    4.9009    3.7197 H       1  UNL1        0.0236
     21 H          15.0076    6.5074    3.1132 H       1  UNL1        0.0236
     22 H          16.7014    6.0496    3.2622 H       1  UNL1        0.0236
     23 H          16.6007    1.8357    1.7712 H       1  UNL1        0.0239
     24 H          16.5158    2.9588    3.1354 H       1  UNL1        0.0239
     25 H          17.9411    2.9310    2.1010 H       1  UNL1        0.0239
@<TRIPOS>BOND
     1    15     7    1
     2    14     7    1
     3    13     6    1
     4     7    16    1
     5     7     2    1
     6     6    12    1
     7     6    11    1
     8     6     1    1
     9     2     1    2
    10     2     3    1
    11    18     8    1
    12     1     5    1
    13     3     8    1
    14     3     4    1
    15     8    19    1
    16     8    17    1
    17     5     4    1
    18     5    10    1
    19     4     9    1
    20    23    10    1
    21    25    10    1
    22    10    24    1
    23     9    21    1
    24     9    22    1
    25     9    20    1
