@<TRIPOS>MOLECULE
1,2,3,4,5
 25 25 0 0 0
SMALL
GASTEIGER

@<TRIPOS>ATOM
      1 C           2.0546    9.6669   12.0884 C.2     1  UNL1       -0.0584
      2 C           2.4067    9.2333   13.4145 C.2     1  UNL1       -0.0477
      3 C           3.7651    8.7865   13.3720 C.2     1  UNL1       -0.0477
      4 C           4.2393    8.8804   12.0363 C.2     1  UNL1       -0.0584
      5 C           3.1750    9.4295   11.2315 C.3     1  UNL1        0.0231
      6 C           0.8978   10.5621   11.7504 C.3     1  UNL1       -0.0424
      7 C           1.6976    9.5985   14.6852 C.3     1  UNL1       -0.0395
      8 C           4.6325    8.5570   14.5667 C.3     1  UNL1       -0.0395
      9 C           5.6939    8.8157   11.6791 C.3     1  UNL1       -0.0424
     10 C           3.3481   10.0508    9.8749 C.3     1  UNL1       -0.0510
     11 H           0.0258   10.3373   12.3600 H       1  UNL1        0.0275
     12 H           0.6224   10.4788   10.7016 H       1  UNL1        0.0275
     13 H           1.1867   11.5980   11.9426 H       1  UNL1        0.0275
     14 H           0.7215   10.0311   14.4843 H       1  UNL1        0.0278
     15 H           2.2904   10.3404   15.2228 H       1  UNL1        0.0278
     16 H           1.5735    8.7295   15.3285 H       1  UNL1        0.0278
     17 H           4.0411    8.2345   15.4198 H       1  UNL1        0.0278
     18 H           5.1309    9.4954   14.8253 H       1  UNL1        0.0278
     19 H           5.3950    7.8103   14.3570 H       1  UNL1        0.0278
     20 H           6.1122    7.8349   11.8997 H       1  UNL1        0.0275
     21 H           6.2366    9.5526   12.2751 H       1  UNL1        0.0275
     22 H           5.8600    9.0436   10.6298 H       1  UNL1        0.0275
     23 H           4.0211    9.4732    9.2458 H       1  UNL1        0.0242
     24 H           3.7706   11.0513    9.9930 H       1  UNL1        0.0242
     25 H           2.3942   10.1474    9.3606 H       1  UNL1        0.0242
@<TRIPOS>BOND
     1    23    10    1
     2    25    10    1
     3    10    24    1
     4    10     5    1
     5    22     9    1
     6    12     6    1
     7     5     4    1
     8     5     1    1
     9     9    20    1
    10     9     4    1
    11     9    21    1
    12     6    13    1
    13     6     1    1
    14     6    11    1
    15     4     3    2
    16     1     2    2
    17     3     2    1
    18     3     8    1
    19     2     7    1
    20    19     8    1
    21    14     7    1
    22     8    18    1
    23     8    17    1
    24     7    15    1
    25     7    16    1
