@<TRIPOS>MOLECULE
3,4,5,6,7
 38 38 0 0 0
SMALL
GASTEIGER

@<TRIPOS>ATOM
      1 SI          3.1345    5.6361   -3.5417 Si      1  UNL1        0.0000
      2 SI          7.9691    1.9520   -1.3784 Si      1  UNL1        0.0000
      3 C           2.6211    2.2789   -0.6267 C.2     1  UNL1        0.0000
      4 C           3.6987    1.4682   -0.1299 C.2     1  UNL1        0.0000
      5 C           3.1180    0.3775    0.5884 C.2     1  UNL1        0.0000
      6 C           1.7133    0.5064    0.5302 C.3     1  UNL1        0.0000
      7 C           1.4001    1.6901   -0.1828 C.2     1  UNL1        0.0000
      8 C           2.7605    3.3431   -1.5390 C.1     1  UNL1        0.0000
      9 C           2.8975    4.2328   -2.3470 C.1     1  UNL1        0.0000
     10 C           5.0513    1.6071   -0.4989 C.1     1  UNL1        0.0000
     11 C           6.2022    1.7243   -0.8526 C.1     1  UNL1        0.0000
     12 C           4.8306    5.4020   -4.3767 C.3     1  UNL1        0.0000
     13 C           3.0704    7.2592   -2.5478 C.3     1  UNL1        0.0000
     14 C           1.7283    5.5632   -4.8269 C.3     1  UNL1        0.0000
     15 C           8.9934    2.3842    0.1682 C.3     1  UNL1        0.0000
     16 C           8.0099    3.3713   -2.6482 C.3     1  UNL1        0.0000
     17 C           8.5722    0.3216   -2.1612 C.3     1  UNL1        0.0000
     18 H           3.6639   -0.4902    0.9358 H       1  UNL1        0.0000
     19 H           0.9990   -0.2425    0.8486 H       1  UNL1        0.0000
     20 H           0.4171    1.9796   -0.5305 H       1  UNL1        0.0000
     21 H           5.0355    6.1965   -5.0886 H       1  UNL1        0.0000
     22 H           5.6301    5.4021   -3.6423 H       1  UNL1        0.0000
     23 H           4.8792    4.4587   -4.9128 H       1  UNL1        0.0000
     24 H           2.1116    7.3796   -2.0524 H       1  UNL1        0.0000
     25 H           3.2219    8.1234   -3.1884 H       1  UNL1        0.0000
     26 H           3.8380    7.2781   -1.7798 H       1  UNL1        0.0000
     27 H           1.8196    6.3623   -5.5572 H       1  UNL1        0.0000
     28 H           1.7357    4.6216   -5.3682 H       1  UNL1        0.0000
     29 H           0.7560    5.6616   -4.3531 H       1  UNL1        0.0000
     30 H           8.6202    3.2856    0.6452 H       1  UNL1        0.0000
     31 H          10.0374    2.5509   -0.0818 H       1  UNL1        0.0000
     32 H           8.9541    1.5859    0.9033 H       1  UNL1        0.0000
     33 H           9.0157    3.5421   -3.0214 H       1  UNL1        0.0000
     34 H           7.3733    3.1555   -3.5011 H       1  UNL1        0.0000
     35 H           7.6608    4.2991   -2.2047 H       1  UNL1        0.0000
     36 H           9.6049    0.3998   -2.4889 H       1  UNL1        0.0000
     37 H           8.5142   -0.5002   -1.4535 H       1  UNL1        0.0000
     38 H           7.9725    0.0528   -3.0259 H       1  UNL1        0.0000
@<TRIPOS>BOND
     1    27    14    1
     2    28    14    1
     3    21    12    1
     4    23    12    1
     5    14    29    1
     6    14     1    1
     7    12    22    1
     8    12     1    1
     9     1    13    1
    10     1     9    1
    11    34    16    1
    12    25    13    1
    13    38    17    1
    14    33    16    1
    15    16    35    1
    16    16     2    1
    17    13    24    1
    18    13    26    1
    19    36    17    1
    20     9     8    3
    21    17    37    1
    22    17     2    1
    23     8     3    1
    24     2    11    1
    25     2    15    1
    26    11    10    3
    27     3     7    2
    28     3     4    1
    29    20     7    1
    30    10     4    1
    31     7     6    1
    32     4     5    2
    33    31    15    1
    34    15    30    1
    35    15    32    1
    36     6     5    1
    37     6    19    1
    38     5    18    1
