@<TRIPOS>MOLECULE
1,2,3,4,5
 25 25 0 0 0
SMALL
GASTEIGER

@<TRIPOS>ATOM
      1 C           9.0994   11.7682   12.3562 C.2     1  UNL1       -0.0584
      2 C           8.3235   12.5541   11.4547 C.2     1  UNL1       -0.0477
      3 C           8.7404   13.9090   11.5796 C.2     1  UNL1       -0.0477
      4 C           9.7047   13.9865   12.6209 C.2     1  UNL1       -0.0584
      5 C           9.9415   12.6572   13.1019 C.3     1  UNL1        0.0231
      6 C           8.8740   10.3198   12.6813 C.3     1  UNL1       -0.0424
      7 C           7.1065   12.0619   10.7311 C.3     1  UNL1       -0.0395
      8 C           8.0880   15.0799   10.8999 C.3     1  UNL1       -0.0395
      9 C          10.1552   15.2542   13.2873 C.3     1  UNL1       -0.0424
     10 C          10.6905   12.2584   14.3415 C.3     1  UNL1       -0.0510
     11 H           8.1749   10.2237   13.5155 H       1  UNL1        0.0275
     12 H           9.8097    9.8385   12.9620 H       1  UNL1        0.0275
     13 H           8.4604    9.7897   11.8258 H       1  UNL1        0.0275
     14 H           6.3050   11.8983   11.4553 H       1  UNL1        0.0278
     15 H           6.7532   12.7854   10.0000 H       1  UNL1        0.0278
     16 H           7.2942   11.1180   10.2225 H       1  UNL1        0.0278
     17 H           7.1700   15.3581   11.4229 H       1  UNL1        0.0278
     18 H           8.7434   15.9502   10.8941 H       1  UNL1        0.0278
     19 H           7.8255   14.8437    9.8685 H       1  UNL1        0.0278
     20 H           9.4307   15.5397   14.0541 H       1  UNL1        0.0275
     21 H          11.1233   15.1347   13.7694 H       1  UNL1        0.0275
     22 H          10.2305   16.0777   12.5778 H       1  UNL1        0.0275
     23 H           9.9848   11.9930   15.1320 H       1  UNL1        0.0242
     24 H          11.3162   13.0692   14.7079 H       1  UNL1        0.0242
     25 H          11.3259   11.3936   14.1502 H       1  UNL1        0.0242
@<TRIPOS>BOND
     1    19     8    1
     2    15     7    1
     3    16     7    1
     4     7     2    1
     5     7    14    1
     6    18     8    1
     7     8    17    1
     8     8     3    1
     9     2     3    1
    10     2     1    2
    11     3     4    2
    12    13     6    1
    13     1     6    1
    14     1     5    1
    15    22     9    1
    16     4     5    1
    17     4     9    1
    18     6    12    1
    19     6    11    1
    20     5    10    1
    21     9    21    1
    22     9    20    1
    23    25    10    1
    24    10    24    1
    25    10    23    1
