@<TRIPOS>MOLECULE
2,3,4,5,6
 22 22 0 0 0
SMALL
GASTEIGER

@<TRIPOS>ATOM
      1 SI          2.6290   10.5954    6.9641 Si      1  UNL1        0.0000
      2 C           3.7395    7.9558    6.1440 C.2     1  UNL1        0.0000
      3 C           4.8839    7.1828    6.4144 C.2     1  UNL1        0.0000
      4 C           5.8114    7.9961    7.0992 C.3     1  UNL1        0.0000
      5 C           5.2190    9.2692    7.2687 C.3     1  UNL1        0.0000
      6 C           3.9292    9.2602    6.6789 C.3     1  UNL1        0.0000
      7 C           3.3925   11.9372    8.0863 C.3     1  UNL1        0.0000
      8 C           1.1780    9.7530    7.8870 C.3     1  UNL1        0.0000
      9 C           1.9182   11.4383    5.3988 C.3     1  UNL1        0.0000
     10 H           2.8080    7.5736    5.7462 H       1  UNL1        0.0000
     11 H           4.9925    6.1206    6.2331 H       1  UNL1        0.0000
     12 H           6.7312    7.6586    7.5562 H       1  UNL1        0.0000
     13 H           5.6233   10.0781    7.8586 H       1  UNL1        0.0000
     14 H           2.6469   12.6803    8.3509 H       1  UNL1        0.0000
     15 H           3.7825   11.5231    9.0108 H       1  UNL1        0.0000
     16 H           4.2025   12.4525    7.5797 H       1  UNL1        0.0000
     17 H           0.6996    8.9895    7.2815 H       1  UNL1        0.0000
     18 H           1.5134    9.2793    8.8036 H       1  UNL1        0.0000
     19 H           0.4195   10.4821    8.1512 H       1  UNL1        0.0000
     20 H           0.8896   11.1458    5.2112 H       1  UNL1        0.0000
     21 H           1.9294   12.5166    5.5235 H       1  UNL1        0.0000
     22 H           2.5007   11.2139    4.5113 H       1  UNL1        0.0000
@<TRIPOS>BOND
     1    22     9    1
     2    20     9    1
     3     9    21    1
     4     9     1    1
     5    10     2    1
     6     2     3    2
     7     2     6    1
     8    11     3    1
     9     3     4    1
    10     6     1    1
    11     6     5    1
    12     1     8    1
    13     1     7    1
    14     4     5    1
    15     4    12    1
    16     5    13    1
    17    17     8    1
    18    16     7    1
    19     8    19    1
    20     8    18    1
    21     7    14    1
    22     7    15    1
