@<TRIPOS>MOLECULE
2,3,4,5,6
 22 22 0 0 0
SMALL
GASTEIGER

@<TRIPOS>ATOM
      1 SI         -0.1769    3.9594    7.6578 Si      1  UNL1        0.0000
      2 C          -1.0498    3.6687    4.8490 C.2     1  UNL1        0.0000
      3 C          -0.8249    4.2789    3.5946 C.2     1  UNL1        0.0000
      4 C           0.1565    5.2780    3.7697 C.2     1  UNL1        0.0000
      5 C           0.5922    5.2201    5.0992 C.2     1  UNL1        0.0000
      6 C          -0.1547    4.2166    5.7893 C.3     1  UNL1        0.0000
      7 H          -1.8625    2.9916    5.0790 H       1  UNL1        0.0000
      8 H          -1.4220    4.1374    2.7028 H       1  UNL1        0.0000
      9 H           0.4853    5.9817    3.0141 H       1  UNL1        0.0000
     10 H           1.2979    5.8930    5.5710 H       1  UNL1        0.0000
     11 C           1.1256    5.0802    8.4841 C.3     1  UNL1        0.0000
     12 H           1.1269    4.9406    9.5605 H       1  UNL1        0.0000
     13 H           0.9312    6.1311    8.2910 H       1  UNL1        0.0000
     14 H           2.1200    4.8460    8.1175 H       1  UNL1        0.0000
     15 C           0.1130    2.1330    8.1403 C.3     1  UNL1        0.0000
     16 H          -0.6382    1.4748    7.7124 H       1  UNL1        0.0000
     17 H           0.0735    2.0110    9.2184 H       1  UNL1        0.0000
     18 H           1.0898    1.7970    7.8052 H       1  UNL1        0.0000
     19 C          -1.9247    4.4687    8.2546 C.3     1  UNL1        0.0000
     20 H          -1.9997    4.3795    9.3331 H       1  UNL1        0.0000
     21 H          -2.6981    3.8433    7.8200 H       1  UNL1        0.0000
     22 H          -2.1512    5.4972    7.9929 H       1  UNL1        0.0000
@<TRIPOS>BOND
     1     8     3    1
     2     9     4    1
     3     3     4    1
     4     3     2    2
     5     4     5    2
     6     2     7    1
     7     2     6    1
     8     5    10    1
     9     5     6    1
    10     6     1    1
    11     1    15    1
    12     1    19    1
    13     1    11    1
    14    16    15    1
    15    18    15    1
    16    21    19    1
    17    22    19    1
    18    14    11    1
    19    15    17    1
    20    19    20    1
    21    13    11    1
    22    11    12    1
