@<TRIPOS>MOLECULE
2,3,4,5,6
 22 22 0 0 0
SMALL
GASTEIGER

@<TRIPOS>ATOM
      1 SI          1.3748    1.6694    0.8772 Si      1  UNL1        0.0000
      2 C          -0.2243    1.2750    3.3352 C.3     1  UNL1        0.0000
      3 C          -0.0506    0.8549    4.6657 C.2     1  UNL1        0.0000
      4 C           1.3216    0.6771    4.8857 C.2     1  UNL1        0.0000
      5 C           2.0009    0.9783    3.6834 C.3     1  UNL1        0.0000
      6 C           1.0416    1.3414    2.7003 C.3     1  UNL1        0.0000
      7 H          -1.1753    1.3902    2.8310 H       1  UNL1        0.0000
      8 H          -0.8379    0.6203    5.3689 H       1  UNL1        0.0000
      9 H           1.7788    0.2849    5.7851 H       1  UNL1        0.0000
     10 H           3.0621    0.8395    3.5083 H       1  UNL1        0.0000
     11 C           0.6176    3.3435    0.3409 C.3     1  UNL1        0.0000
     12 H          -0.4676    3.3277    0.3954 H       1  UNL1        0.0000
     13 H           0.8860    3.5859   -0.6828 H       1  UNL1        0.0000
     14 H           0.9800    4.1458    0.9798 H       1  UNL1        0.0000
     15 C           3.2541    1.6507    0.5443 C.3     1  UNL1        0.0000
     16 H           3.4670    1.8513   -0.5011 H       1  UNL1        0.0000
     17 H           3.6922    0.6873    0.7878 H       1  UNL1        0.0000
     18 H           3.7574    2.4107    1.1342 H       1  UNL1        0.0000
     19 C           0.5390    0.2756   -0.1344 C.3     1  UNL1        0.0000
     20 H           0.7025    0.4219   -1.1967 H       1  UNL1        0.0000
     21 H          -0.5331    0.2454    0.0312 H       1  UNL1        0.0000
     22 H           0.9369   -0.6990    0.1285 H       1  UNL1        0.0000
@<TRIPOS>BOND
     1    20    19    1
     2    13    11    1
     3    16    15    1
     4    19    21    1
     5    19    22    1
     6    19     1    1
     7    11    12    1
     8    11     1    1
     9    11    14    1
    10    15    17    1
    11    15     1    1
    12    15    18    1
    13     1     6    1
    14     6     2    1
    15     6     5    1
    16     7     2    1
    17     2     3    1
    18    10     5    1
    19     5     4    1
    20     3     4    2
    21     3     8    1
    22     4     9    1
