@<TRIPOS>MOLECULE
1,2,3,4,5
 10 10 0 0 0
SMALL
GASTEIGER

@<TRIPOS>ATOM
      1 C          15.4927    0.5330    2.2719 C.2     1  UNL1       -0.0654
      2 C          16.1808    1.6063    2.8532 C.2     1  UNL1       -0.0763
      3 C          15.9361    2.7625    2.0580 C.3     1  UNL1        0.0054
      4 C          15.1492    2.3670    0.9519 C.2     1  UNL1       -0.0763
      5 C          14.8422    1.0075    1.0979 C.2     1  UNL1       -0.0654
      6 H          15.5233   -0.4932    2.5962 H       1  UNL1        0.0615
      7 H          16.8513    1.5522    3.6941 H       1  UNL1        0.0578
      8 H          16.4237    3.7174    2.1751 H       1  UNL1        0.0394
      9 H          14.8729    2.9951    0.1215 H       1  UNL1        0.0578
     10 H          14.3172    0.3906    0.3876 H       1  UNL1        0.0615
@<TRIPOS>BOND
     1     9     4    1
     2    10     5    1
     3     4     5    2
     4     4     3    1
     5     5     1    1
     6     3     8    1
     7     3     2    1
     8     1     6    1
     9     1     2    2
    10     2     7    1
