@<TRIPOS>MOLECULE
1,2,3,4,5
 10 10 0 0 0
SMALL
GASTEIGER

@<TRIPOS>ATOM
      1 C           5.5230    7.4456   12.6538 C.2     1  UNL1       -0.0763
      2 C           5.9225    6.1048   12.8220 C.2     1  UNL1       -0.0654
      3 C           4.8674    5.4049   13.4366 C.2     1  UNL1       -0.0654
      4 C           3.8201    6.3146   13.6716 C.2     1  UNL1       -0.0763
      5 C           4.2160    7.5778   13.1816 C.3     1  UNL1        0.0054
      6 H           6.1651    8.2564   12.3289 H       1  UNL1        0.0578
      7 H           6.9068    5.7059   12.6244 H       1  UNL1        0.0615
      8 H           4.9055    4.3793   13.7808 H       1  UNL1        0.0615
      9 H           2.9328    6.1050   14.2564 H       1  UNL1        0.0578
     10 H           3.6859    8.5117   13.3378 H       1  UNL1        0.0394
@<TRIPOS>BOND
     1     6     1    1
     2     7     2    1
     3     1     2    2
     4     1     5    1
     5     2     3    1
     6     5    10    1
     7     5     4    1
     8     3     4    2
     9     3     8    1
    10     4     9    1
