@<TRIPOS>MOLECULE
1,2,3,4,5
 10 10 0 0 0
SMALL
GASTEIGER

@<TRIPOS>ATOM
      1 C           1.7253    5.4127   10.0496 C.2     1  UNL1       -0.0763
      2 C           1.4858    5.4661   11.4402 C.3     1  UNL1        0.0054
      3 C           1.5196    6.8172   11.8321 C.2     1  UNL1       -0.0763
      4 C           1.8211    7.5975   10.7016 C.2     1  UNL1       -0.0654
      5 C           1.9379    6.7281    9.5929 C.2     1  UNL1       -0.0654
      6 H           1.6304    4.5309    9.4291 H       1  UNL1        0.0578
      7 H           1.1926    4.6276   12.0610 H       1  UNL1        0.0394
      8 H           1.2282    7.2046   12.7996 H       1  UNL1        0.0578
      9 H           1.7904    8.6787   10.6511 H       1  UNL1        0.0615
     10 H           2.0107    7.0411    8.5584 H       1  UNL1        0.0615
@<TRIPOS>BOND
     1    10     5    1
     2     6     1    1
     3     5     1    2
     4     5     4    1
     5     1     2    1
     6     9     4    1
     7     4     3    2
     8     2     3    1
     9     2     7    1
    10     3     8    1
