@<TRIPOS>MOLECULE
1,3,5,7,9
 10 10 0 0 0
SMALL
GASTEIGER

@<TRIPOS>ATOM
      1 C          -0.0415    3.1586    0.0979 C.3     1  UNL1       -0.0127
      2 H           0.1762    2.7478   -0.8804 H       1  UNL1        0.0352
      3 C           0.7942    4.0261    0.8427 C.3     1  UNL1       -0.0235
      4 H           1.7654    4.3981    0.5371 H       1  UNL1        0.0315
      5 C           0.0594    4.4825    1.9537 C.3     1  UNL1       -0.0127
      6 H           0.3712    5.2606    2.6380 H       1  UNL1        0.0352
      7 C          -1.2232    3.8945    1.9032 C.2     1  UNL1       -0.0837
      8 H          -2.0575    4.1475    2.5437 H       1  UNL1        0.0572
      9 C          -1.2857    3.0878    0.7501 C.2     1  UNL1       -0.0837
     10 H          -2.1674    2.5854    0.3750 H       1  UNL1        0.0572
@<TRIPOS>BOND
     1     2     1    1
     2     1     9    1
     3     1     3    1
     4    10     9    1
     5     4     3    1
     6     9     7    2
     7     3     5    1
     8     7     5    1
     9     7     8    1
    10     5     6    1
