@<TRIPOS>MOLECULE
1,3,5,7,9
 10 10 0 0 0
SMALL
GASTEIGER

@<TRIPOS>ATOM
      1 C           2.4003    1.4863    0.5739 C.2     1  UNL1       -0.0763
      2 H           2.6423    2.0772   -0.3007 H       1  UNL1        0.0578
      3 C           3.0128    1.6039    1.8360 C.3     1  UNL1        0.0054
      4 H           3.7713    2.3255    2.1130 H       1  UNL1        0.0394
      5 C           2.5837    0.5195    2.6299 C.2     1  UNL1       -0.0763
      6 H           2.9651    0.2704    3.6125 H       1  UNL1        0.0578
      7 C           1.7008   -0.2632    1.8565 C.2     1  UNL1       -0.0654
      8 H           1.2903   -1.2255    2.1373 H       1  UNL1        0.0615
      9 C           1.5791    0.3410    0.5887 C.2     1  UNL1       -0.0654
     10 H           1.0481   -0.0748   -0.2586 H       1  UNL1        0.0615
@<TRIPOS>BOND
     1     2     1    1
     2    10     9    1
     3     1     9    2
     4     1     3    1
     5     9     7    1
     6     3     4    1
     7     3     5    1
     8     7     8    1
     9     7     5    2
    10     5     6    1
