@<TRIPOS>MOLECULE
2,3,4,5,6
 22 22 0 0 0
SMALL
GASTEIGER

@<TRIPOS>ATOM
      1 SI         -2.6761    4.0223   13.0172 Si      1  UNL1        0.0000
      2 C          -2.1238    4.2681   10.1148 C.2     1  UNL1        0.0000
      3 C          -2.6882    3.8515    8.8983 C.2     1  UNL1        0.0000
      4 C          -3.8909    3.1643    9.1837 C.2     1  UNL1        0.0000
      5 C          -4.0681    3.1648   10.5770 C.2     1  UNL1        0.0000
      6 C          -2.9689    3.8399   11.1797 C.3     1  UNL1        0.0000
      7 C          -0.9237    4.7017   13.3611 C.3     1  UNL1        0.0000
      8 C          -3.9663    5.1488   13.8707 C.3     1  UNL1        0.0000
      9 C          -2.8570    2.2460   13.7389 C.3     1  UNL1        0.0000
     10 H          -1.2530    4.9030   10.2265 H       1  UNL1        0.0000
     11 H          -2.3298    4.1074    7.9080 H       1  UNL1        0.0000
     12 H          -4.6145    2.8355    8.4456 H       1  UNL1        0.0000
     13 H          -4.9522    2.8262   11.1069 H       1  UNL1        0.0000
     14 H          -0.1724    4.1549   12.7983 H       1  UNL1        0.0000
     15 H          -0.6725    4.6293   14.4144 H       1  UNL1        0.0000
     16 H          -0.8527    5.7476   13.0809 H       1  UNL1        0.0000
     17 H          -4.9794    4.8100   13.6796 H       1  UNL1        0.0000
     18 H          -3.8914    6.1696   13.5110 H       1  UNL1        0.0000
     19 H          -3.8210    5.1665   14.9459 H       1  UNL1        0.0000
     20 H          -2.3365    1.5290   13.0914 H       1  UNL1        0.0000
     21 H          -3.9043    1.9587   13.7971 H       1  UNL1        0.0000
     22 H          -2.4451    2.1626   14.7402 H       1  UNL1        0.0000
@<TRIPOS>BOND
     1    11     3    1
     2    12     4    1
     3     3     4    1
     4     3     2    2
     5     4     5    2
     6     2    10    1
     7     2     6    1
     8     5    13    1
     9     5     6    1
    10     6     1    1
    11    14     7    1
    12     1     7    1
    13     1     9    1
    14     1     8    1
    15    16     7    1
    16    20     9    1
    17     7    15    1
    18    18     8    1
    19    17     8    1
    20     9    21    1
    21     9    22    1
    22     8    19    1
