@<TRIPOS>MOLECULE
2,3,4,5,6
 22 22 0 0 0
SMALL
GASTEIGER

@<TRIPOS>ATOM
      1 SI         -0.9301    0.7046    7.2539 Si      1  UNL1        0.0000
      2 C          -0.0040    2.3287    7.0030 C.3     1  UNL1        0.0000
      3 C          -0.5190    3.6406    7.1205 C.2     1  UNL1        0.0000
      4 C           0.4949    4.5611    6.8381 C.2     1  UNL1        0.0000
      5 C           1.6621    3.8411    6.5096 C.3     1  UNL1        0.0000
      6 C           1.3578    2.4621    6.6054 C.3     1  UNL1        0.0000
      7 C          -0.8812   -0.2666    5.6054 C.3     1  UNL1        0.0000
      8 C          -0.0552   -0.2930    8.6263 C.3     1  UNL1        0.0000
      9 C          -2.7357    1.0731    7.7497 C.3     1  UNL1        0.0000
     10 H          -1.5166    3.8878    7.4623 H       1  UNL1        0.0000
     11 H           0.4279    5.6351    6.9391 H       1  UNL1        0.0000
     12 H           2.6496    4.2628    6.3682 H       1  UNL1        0.0000
     13 H           2.0825    1.6551    6.5763 H       1  UNL1        0.0000
     14 H           0.1377   -0.3575    5.2303 H       1  UNL1        0.0000
     15 H          -1.4660    0.2411    4.8377 H       1  UNL1        0.0000
     16 H          -1.2809   -1.2703    5.7172 H       1  UNL1        0.0000
     17 H          -0.0243    0.2569    9.5615 H       1  UNL1        0.0000
     18 H           0.9658   -0.5422    8.3558 H       1  UNL1        0.0000
     19 H          -0.5832   -1.2223    8.8088 H       1  UNL1        0.0000
     20 H          -3.2453    1.6563    6.9871 H       1  UNL1        0.0000
     21 H          -2.7905    1.6223    8.6854 H       1  UNL1        0.0000
     22 H          -3.2912    0.1500    7.8810 H       1  UNL1        0.0000
@<TRIPOS>BOND
     1    15     7    1
     2    14     7    1
     3     7    16    1
     4     7     1    1
     5    12     5    1
     6     5     6    1
     7     5     4    1
     8    13     6    1
     9     6     2    1
    10     4    11    1
    11     4     3    2
    12    20     9    1
    13     2     3    1
    14     2     1    1
    15     3    10    1
    16     1     9    1
    17     1     8    1
    18     9    22    1
    19     9    21    1
    20    18     8    1
    21     8    19    1
    22     8    17    1
