@<TRIPOS>MOLECULE
1,2,3,4,5
 25 25 0 0 0
SMALL
GASTEIGER

@<TRIPOS>ATOM
      1 C           3.4013    1.4919    4.5389 C.3     1  UNL1        0.0231
      2 C           2.9154    0.6123    5.5680 C.2     1  UNL1       -0.0584
      3 C           2.8777    1.3451    6.7874 C.2     1  UNL1       -0.0477
      4 C           3.3616    2.6645    6.5297 C.2     1  UNL1       -0.0477
      5 C           3.6602    2.7583    5.1342 C.2     1  UNL1       -0.0584
      6 C           3.8655    1.0936    3.1682 C.3     1  UNL1       -0.0510
      7 H           4.9562    1.0377    3.1546 H       1  UNL1        0.0242
      8 H           3.5595    1.8198    2.4154 H       1  UNL1        0.0242
      9 H           3.4796    0.1164    2.8849 H       1  UNL1        0.0242
     10 C           2.7745   -0.8779    5.4674 C.3     1  UNL1       -0.0424
     11 H           3.6788   -1.3566    5.8501 H       1  UNL1        0.0275
     12 H           2.6405   -1.1973    4.4353 H       1  UNL1        0.0275
     13 H           1.9315   -1.2385    6.0560 H       1  UNL1        0.0275
     14 C           2.6080    0.7795    8.1501 C.3     1  UNL1       -0.0395
     15 H           3.5452    0.4716    8.6190 H       1  UNL1        0.0278
     16 H           1.9546   -0.0897    8.0952 H       1  UNL1        0.0278
     17 H           2.1357    1.5218    8.7918 H       1  UNL1        0.0278
     18 C           3.8213    3.6319    7.5750 C.3     1  UNL1       -0.0395
     19 H           4.8491    3.3866    7.8526 H       1  UNL1        0.0278
     20 H           3.2075    3.5769    8.4700 H       1  UNL1        0.0278
     21 H           3.8055    4.6549    7.2088 H       1  UNL1        0.0278
     22 C           4.3602    3.9100    4.4767 C.3     1  UNL1       -0.0424
     23 H           5.4354    3.8438    4.6564 H       1  UNL1        0.0275
     24 H           4.0077    4.8594    4.8756 H       1  UNL1        0.0275
     25 H           4.1949    3.9085    3.4008 H       1  UNL1        0.0275
@<TRIPOS>BOND
     1     8     6    1
     2     9     6    1
     3     7     6    1
     4     6     1    1
     5    25    22    1
     6    12    10    1
     7    22    23    1
     8    22    24    1
     9    22     5    1
    10     1     5    1
    11     1     2    1
    12     5     4    2
    13    10     2    1
    14    10    11    1
    15    10    13    1
    16     2     3    2
    17     4     3    1
    18     4    18    1
    19     3    14    1
    20    21    18    1
    21    18    19    1
    22    18    20    1
    23    16    14    1
    24    14    15    1
    25    14    17    1
