@<TRIPOS>MOLECULE
1,2,3,4,5
 25 25 0 0 0
SMALL
GASTEIGER

@<TRIPOS>ATOM
      1 C           0.1463    1.0943    5.7214 C.3     1  UNL1        0.0052
      2 C          -1.2201    1.4652    5.5432 C.3     1  UNL1       -0.0053
      3 C          -2.0122    0.3092    5.7414 C.3     1  UNL1        0.0052
      4 C          -1.1404   -0.7744    6.1037 C.2     1  UNL1       -0.0658
      5 C           0.1843   -0.2772    6.1262 C.2     1  UNL1       -0.0658
      6 C           1.2915    2.0511    5.6722 C.3     1  UNL1       -0.0545
      7 H           1.1183    2.7873    4.8910 H       1  UNL1        0.0239
      8 H           2.2223    1.5369    5.4453 H       1  UNL1        0.0239
      9 H           1.4022    2.5735    6.6241 H       1  UNL1        0.0239
     10 C          -1.7019    2.8614    5.3161 C.3     1  UNL1       -0.0574
     11 H          -1.2367    3.2876    4.4285 H       1  UNL1        0.0236
     12 H          -1.4362    3.4857    6.1701 H       1  UNL1        0.0236
     13 H          -2.7817    2.8874    5.1945 H       1  UNL1        0.0236
     14 C          -3.5047    0.2581    5.8054 C.3     1  UNL1       -0.0545
     15 H          -3.9556    0.8548    5.0151 H       1  UNL1        0.0239
     16 H          -3.8488    0.6478    6.7659 H       1  UNL1        0.0239
     17 H          -3.8572   -0.7655    5.7075 H       1  UNL1        0.0239
     18 C          -1.6018   -2.0969    6.6310 C.3     1  UNL1       -0.0430
     19 H          -0.7576   -2.7584    6.8089 H       1  UNL1        0.0275
     20 H          -2.2864   -2.5855    5.9382 H       1  UNL1        0.0275
     21 H          -2.1290   -1.9571    7.5767 H       1  UNL1        0.0275
     22 C           1.3771   -0.9993    6.6665 C.3     1  UNL1       -0.0430
     23 H           1.5527   -1.9428    6.1521 H       1  UNL1        0.0275
     24 H           1.2215   -1.2174    7.7246 H       1  UNL1        0.0275
     25 H           2.2677   -0.3836    6.5767 H       1  UNL1        0.0275
@<TRIPOS>BOND
     1    11    10    1
     2     7     6    1
     3    15    14    1
     4    13    10    1
     5    10     2    1
     6    10    12    1
     7     8     6    1
     8     2     1    1
     9     2     3    1
    10     6     1    1
    11     6     9    1
    12    17    14    1
    13     1     5    1
    14     3    14    1
    15     3     4    1
    16    14    16    1
    17    20    18    1
    18     4     5    2
    19     4    18    1
    20     5    22    1
    21    23    22    1
    22    25    22    1
    23    18    19    1
    24    18    21    1
    25    22    24    1
