@<TRIPOS>MOLECULE
1,2,3,4,5
 10 10 0 0 0
SMALL
GASTEIGER

@<TRIPOS>ATOM
      1 C           1.3737    5.7073    3.8349 C.3     1  UNL1       -0.0235
      2 C           0.1810    5.0593    3.4571 C.3     1  UNL1       -0.0127
      3 C          -0.2606    4.2872    4.5551 C.2     1  UNL1       -0.0837
      4 C           0.6653    4.4311    5.5968 C.2     1  UNL1       -0.0837
      5 C           1.6909    5.3090    5.1523 C.3     1  UNL1       -0.0127
      6 H           1.8857    6.4661    3.2609 H       1  UNL1        0.0315
      7 H          -0.3895    5.2442    2.5585 H       1  UNL1        0.0352
      8 H          -1.2035    3.7601    4.6072 H       1  UNL1        0.0572
      9 H           0.5583    4.0522    6.6050 H       1  UNL1        0.0572
     10 H           2.4331    5.7584    5.7973 H       1  UNL1        0.0352
@<TRIPOS>BOND
     1     7     2    1
     2     6     1    1
     3     2     1    1
     4     2     3    1
     5     1     5    1
     6     3     8    1
     7     3     4    2
     8     5     4    1
     9     5    10    1
    10     4     9    1
