@<TRIPOS>MOLECULE
1,2,3,4,5
 10 10 0 0 0
SMALL
GASTEIGER

@<TRIPOS>ATOM
      1 C           2.5005    2.2018    1.3707 C.2     1  UNL1       -0.0837
      2 C           1.7870    1.0082    1.5922 C.2     1  UNL1       -0.0837
      3 C           1.8434    0.7169    2.9814 C.3     1  UNL1       -0.0127
      4 C           2.5644    1.7487    3.6176 C.3     1  UNL1       -0.0235
      5 C           3.0151    2.6457    2.6160 C.3     1  UNL1       -0.0127
      6 H           2.5701    2.7321    0.4356 H       1  UNL1        0.0572
      7 H           1.2099    0.4697    0.8599 H       1  UNL1        0.0572
      8 H           1.2934   -0.0653    3.4773 H       1  UNL1        0.0352
      9 H           2.6721    1.8917    4.6781 H       1  UNL1        0.0315
     10 H           3.4847    3.5978    2.8014 H       1  UNL1        0.0352
@<TRIPOS>BOND
     1     6     1    1
     2     7     2    1
     3     1     2    2
     4     1     5    1
     5     2     3    1
     6     5    10    1
     7     5     4    1
     8     3     8    1
     9     3     4    1
    10     4     9    1
