@<TRIPOS>MOLECULE
1,2,3,4,5
 10 10 0 0 0
SMALL
GASTEIGER

@<TRIPOS>ATOM
      1 C           3.0555    1.1084    0.9320 C.3     1  UNL1       -0.0235
      2 C           4.4620    1.0611    1.0649 C.3     1  UNL1       -0.0127
      3 C           5.0054    2.1863    0.3878 C.2     1  UNL1       -0.0837
      4 C           3.9343    2.9420   -0.1296 C.2     1  UNL1       -0.0837
      5 C           2.7230    2.2944    0.2298 C.3     1  UNL1       -0.0127
      6 H           2.3768    0.3183    1.2048 H       1  UNL1        0.0315
      7 H           5.0283    0.2323    1.4555 H       1  UNL1        0.0352
      8 H           6.0518    2.3663    0.2071 H       1  UNL1        0.0572
      9 H           4.0189    3.8055   -0.7679 H       1  UNL1        0.0572
     10 H           1.7491    2.5486   -0.1567 H       1  UNL1        0.0352
@<TRIPOS>BOND
     1     9     4    1
     2    10     5    1
     3     4     5    1
     4     4     3    2
     5     8     3    1
     6     5     1    1
     7     3     2    1
     8     1     2    1
     9     1     6    1
    10     2     7    1
