@<TRIPOS>MOLECULE
1,2,3,4,5
 25 25 0 0 0
SMALL
GASTEIGER

@<TRIPOS>ATOM
      1 C           3.1627    6.8087    9.1534 C.3     1  UNL1       -0.0053
      2 C           1.8317    6.3745    9.3834 C.3     1  UNL1        0.0052
      3 C           1.4840    6.7093   10.7183 C.2     1  UNL1       -0.0658
      4 C           2.6044    7.3356   11.3191 C.2     1  UNL1       -0.0658
      5 C           3.6423    7.4121   10.3492 C.3     1  UNL1        0.0052
      6 C           3.8964    6.7141    7.8416 C.3     1  UNL1       -0.0574
      7 H           3.3483    7.2407    7.0570 H       1  UNL1        0.0236
      8 H           4.0191    5.6704    7.5320 H       1  UNL1        0.0236
      9 H           4.8834    7.1668    7.9199 H       1  UNL1        0.0236
     10 C           0.9052    5.7708    8.3639 C.3     1  UNL1       -0.0545
     11 H           0.0808    6.4552    8.1470 H       1  UNL1        0.0239
     12 H           0.4853    4.8294    8.7244 H       1  UNL1        0.0239
     13 H           1.4353    5.5774    7.4326 H       1  UNL1        0.0239
     14 C           0.1279    6.5474   11.3476 C.3     1  UNL1       -0.0430
     15 H          -0.2577    7.5170   11.6718 H       1  UNL1        0.0275
     16 H           0.1676    5.8889   12.2189 H       1  UNL1        0.0275
     17 H          -0.5748    6.1293   10.6294 H       1  UNL1        0.0275
     18 C           2.6594    7.9200   12.7052 C.3     1  UNL1       -0.0430
     19 H           2.7302    9.0099   12.6610 H       1  UNL1        0.0275
     20 H           3.5284    7.5477   13.2568 H       1  UNL1        0.0275
     21 H           1.7621    7.6608   13.2656 H       1  UNL1        0.0275
     22 C           4.9007    8.2215   10.4996 C.3     1  UNL1       -0.0545
     23 H           4.7362    9.2362   10.1262 H       1  UNL1        0.0239
     24 H           5.7308    7.7904    9.9414 H       1  UNL1        0.0239
     25 H           5.1933    8.2946   11.5460 H       1  UNL1        0.0239
@<TRIPOS>BOND
     1     7     6    1
     2    13    10    1
     3     8     6    1
     4     6     9    1
     5     6     1    1
     6    11    10    1
     7    10    12    1
     8    10     2    1
     9     1     2    1
    10     1     5    1
    11     2     3    1
    12    24    22    1
    13    23    22    1
    14     5    22    1
    15     5     4    1
    16    22    25    1
    17    17    14    1
    18     3     4    2
    19     3    14    1
    20     4    18    1
    21    14    15    1
    22    14    16    1
    23    19    18    1
    24    18    20    1
    25    18    21    1
