@<TRIPOS>MOLECULE
1,2,3,4,5
 10 10 0 0 0
SMALL
GASTEIGER

@<TRIPOS>ATOM
      1 C           5.3608    2.8058    8.2564 C.2     1  UNL1       -0.0763
      2 C           4.3526    3.0528    9.2117 C.3     1  UNL1        0.0054
      3 C           3.1123    2.8428    8.6009 C.2     1  UNL1       -0.0763
      4 C           3.3457    2.5095    7.2412 C.2     1  UNL1       -0.0654
      5 C           4.7360    2.5166    7.0279 C.2     1  UNL1       -0.0654
      6 H           6.4217    2.9767    8.3930 H       1  UNL1        0.0578
      7 H           4.5075    3.4294   10.2140 H       1  UNL1        0.0394
      8 H           2.1447    3.0683    9.0266 H       1  UNL1        0.0578
      9 H           2.5798    2.4239    6.4807 H       1  UNL1        0.0615
     10 H           5.2401    2.3851    6.0781 H       1  UNL1        0.0615
@<TRIPOS>BOND
     1    10     5    1
     2     9     4    1
     3     5     4    1
     4     5     1    2
     5     4     3    2
     6     1     6    1
     7     1     2    1
     8     3     8    1
     9     3     2    1
    10     2     7    1
