@<TRIPOS>MOLECULE
1,2,3,4,5
 10 10 0 0 0
SMALL
GASTEIGER

@<TRIPOS>ATOM
      1 C           8.6998    7.9574    7.4324 C.2     1  UNL1       -0.0763
      2 C           9.7743    8.7187    7.9388 C.2     1  UNL1       -0.0654
      3 C          10.7913    7.8348    8.3251 C.2     1  UNL1       -0.0654
      4 C          10.3572    6.5195    8.0601 C.2     1  UNL1       -0.0763
      5 C           9.0670    6.5933    7.4924 C.3     1  UNL1        0.0054
      6 H           7.8142    8.3485    6.9477 H       1  UNL1        0.0578
      7 H           9.8399    9.7966    7.9218 H       1  UNL1        0.0615
      8 H          11.7821    8.1197    8.6574 H       1  UNL1        0.0615
      9 H          10.9694    5.6299    8.1291 H       1  UNL1        0.0578
     10 H           8.5204    5.7780    7.0381 H       1  UNL1        0.0394
@<TRIPOS>BOND
     1     6     1    1
     2    10     5    1
     3     1     5    1
     4     1     2    2
     5     5     4    1
     6     7     2    1
     7     2     3    1
     8     4     9    1
     9     4     3    2
    10     3     8    1
