@<TRIPOS>MOLECULE
1,2,3,4,5
 10 10 0 0 0
SMALL
GASTEIGER

@<TRIPOS>ATOM
      1 C           5.7042    0.7435   10.4490 C.2     1  UNL1       -0.0654
      2 C           6.1437   -0.3237    9.6382 C.2     1  UNL1       -0.0654
      3 C           5.1192   -1.2803    9.5914 C.2     1  UNL1       -0.0763
      4 C           4.0133   -0.7763   10.3121 C.3     1  UNL1        0.0054
      5 C           4.3939    0.4718   10.8646 C.2     1  UNL1       -0.0763
      6 H           6.3206    1.5653   10.7883 H       1  UNL1        0.0615
      7 H           7.1394   -0.4429    9.2293 H       1  UNL1        0.0615
      8 H           5.1879   -2.2592    9.1363 H       1  UNL1        0.0578
      9 H           3.1258   -1.3406   10.5689 H       1  UNL1        0.0394
     10 H           3.8312    1.0356   11.5968 H       1  UNL1        0.0578
@<TRIPOS>BOND
     1     8     3    1
     2     7     2    1
     3     3     2    2
     4     3     4    1
     5     2     1    1
     6     4     9    1
     7     4     5    1
     8     1     6    1
     9     1     5    2
    10     5    10    1
