@<TRIPOS>MOLECULE
1,2,3,4,5
 10 10 0 0 0
SMALL
GASTEIGER

@<TRIPOS>ATOM
      1 C           8.5581    6.6594   11.9382 C.2     1  UNL1       -0.0763
      2 C           9.6533    5.8869   11.4969 C.2     1  UNL1       -0.0654
      3 C          10.7010    6.7601   11.1735 C.2     1  UNL1       -0.0654
      4 C          10.2655    8.0798   11.4129 C.2     1  UNL1       -0.0763
      5 C           8.9427    8.0196   11.9015 C.3     1  UNL1        0.0054
      6 H           7.6409    6.2774   12.3683 H       1  UNL1        0.0578
      7 H           9.7065    4.8084   11.5170 H       1  UNL1        0.0615
      8 H          11.7070    6.4649   10.9012 H       1  UNL1        0.0615
      9 H          10.8900    8.9629   11.3818 H       1  UNL1        0.0578
     10 H           8.3783    8.8406   12.3226 H       1  UNL1        0.0394
@<TRIPOS>BOND
     1     8     3    1
     2     3     4    2
     3     3     2    1
     4     9     4    1
     5     4     5    1
     6     2     7    1
     7     2     1    2
     8     5     1    1
     9     5    10    1
    10     1     6    1
