@<TRIPOS>MOLECULE
1,3,5,7,9
 10 10 0 0 0
SMALL
GASTEIGER

@<TRIPOS>ATOM
      1 C           2.7792   11.5461    1.2138 C.2     1  UNL1       -0.0837
      2 H           2.9869   10.9175    0.3565 H       1  UNL1        0.0572
      3 C           3.4634   12.7368    1.5525 C.3     1  UNL1       -0.0127
      4 H           4.2807   13.1752    0.9891 H       1  UNL1        0.0352
      5 C           2.7395   13.3728    2.5964 C.3     1  UNL1       -0.0235
      6 H           2.9187   14.3730    2.9738 H       1  UNL1        0.0315
      7 C           1.6199   12.5617    2.9043 C.3     1  UNL1       -0.0127
      8 H           0.8147   12.8296    3.5785 H       1  UNL1        0.0352
      9 C           1.6518   11.4293    2.0562 C.2     1  UNL1       -0.0837
     10 H           0.8623   10.6960    1.9409 H       1  UNL1        0.0572
@<TRIPOS>BOND
     1     2     1    1
     2     4     3    1
     3     1     3    1
     4     1     9    2
     5     3     5    1
     6    10     9    1
     7     9     7    1
     8     5     7    1
     9     5     6    1
    10     7     8    1
