@<TRIPOS>MOLECULE
1,3,5,7,9
 10 10 0 0 0
SMALL
GASTEIGER

@<TRIPOS>ATOM
      1 C           4.7133    9.2403    4.3384 C.2     1  UNL1       -0.0763
      2 H           4.3951    8.6571    5.1949 H       1  UNL1        0.0578
      3 C           5.7091   10.2436    4.3609 C.3     1  UNL1        0.0054
      4 H           6.2818   10.5501    5.2278 H       1  UNL1        0.0394
      5 C           5.9668   10.6326    3.0199 C.2     1  UNL1       -0.0763
      6 H           6.7914   11.2542    2.6911 H       1  UNL1        0.0578
      7 C           5.1371    9.8608    2.1768 C.2     1  UNL1       -0.0654
      8 H           5.2113    9.8142    1.0972 H       1  UNL1        0.0615
      9 C           4.3431    9.0167    2.9889 C.2     1  UNL1       -0.0654
     10 H           3.7030    8.2202    2.6239 H       1  UNL1        0.0615
@<TRIPOS>BOND
     1     8     7    1
     2     7     9    1
     3     7     5    2
     4    10     9    1
     5     6     5    1
     6     9     1    2
     7     5     3    1
     8     1     3    1
     9     1     2    1
    10     3     4    1
