@<TRIPOS>MOLECULE
1,2,3,4,5
 25 25 0 0 0
SMALL
GASTEIGER

@<TRIPOS>ATOM
      1 C           1.6322    0.7044    2.0194 C.2     1  UNL1       -0.0477
      2 C           0.8187    1.5457    1.1990 C.2     1  UNL1       -0.0584
      3 C          -0.2308    2.0661    1.9974 C.3     1  UNL1        0.0231
      4 C          -0.0587    1.5616    3.3345 C.2     1  UNL1       -0.0584
      5 C           1.0908    0.7275    3.3424 C.2     1  UNL1       -0.0477
      6 C           2.6117   -0.2966    1.4884 C.3     1  UNL1       -0.0395
      7 C           0.9624    1.6744   -0.2883 C.3     1  UNL1       -0.0424
      8 C          -1.4495    2.7605    1.4640 C.3     1  UNL1       -0.0510
      9 C          -1.0613    1.6273    4.4501 C.3     1  UNL1       -0.0424
     10 C           1.5020   -0.1686    4.4737 C.3     1  UNL1       -0.0395
     11 H           3.2945   -0.6400    2.2613 H       1  UNL1        0.0278
     12 H           2.0653   -1.1618    1.1041 H       1  UNL1        0.0278
     13 H           3.1982    0.1249    0.6766 H       1  UNL1        0.0278
     14 H           2.0092    1.8095   -0.5574 H       1  UNL1        0.0275
     15 H           0.5942    0.7727   -0.7832 H       1  UNL1        0.0275
     16 H           0.3982    2.5250   -0.6664 H       1  UNL1        0.0275
     17 H          -1.1856    3.5241    0.7328 H       1  UNL1        0.0242
     18 H          -2.1001    2.0341    0.9707 H       1  UNL1        0.0242
     19 H          -2.0222    3.2293    2.2625 H       1  UNL1        0.0242
     20 H          -1.7828    2.4271    4.2924 H       1  UNL1        0.0275
     21 H          -1.6136    0.6859    4.5050 H       1  UNL1        0.0275
     22 H          -0.5747    1.7849    5.4126 H       1  UNL1        0.0275
     23 H           1.3446    0.3146    5.4374 H       1  UNL1        0.0278
     24 H           0.9094   -1.0869    4.4563 H       1  UNL1        0.0278
     25 H           2.5530   -0.4405    4.3950 H       1  UNL1        0.0278
@<TRIPOS>BOND
     1    15     7    1
     2    16     7    1
     3    14     7    1
     4     7     2    1
     5    13     6    1
     6    17     8    1
     7    18     8    1
     8    12     6    1
     9     2     3    1
    10     2     1    2
    11     8     3    1
    12     8    19    1
    13     6     1    1
    14     6    11    1
    15     3     4    1
    16     1     5    1
    17     4     5    2
    18     4     9    1
    19     5    10    1
    20    20     9    1
    21    25    10    1
    22     9    21    1
    23     9    22    1
    24    24    10    1
    25    10    23    1
