@<TRIPOS>MOLECULE
1,2,3,4,5
 10 10 0 0 0
SMALL
GASTEIGER

@<TRIPOS>ATOM
      1 C           5.6126    2.8618    2.6271 C.3     1  UNL1       -0.0127
      2 C           5.0024    2.7188    1.3685 C.3     1  UNL1       -0.0235
      3 C           3.6984    3.2662    1.4508 C.3     1  UNL1       -0.0127
      4 C           3.5304    3.8054    2.7506 C.2     1  UNL1       -0.0837
      5 C           4.6888    3.5217    3.4888 C.2     1  UNL1       -0.0837
      6 H           6.6370    2.6283    2.8731 H       1  UNL1        0.0352
      7 H           5.4641    2.3358    0.4736 H       1  UNL1        0.0315
      8 H           3.0148    3.3940    0.6280 H       1  UNL1        0.0352
      9 H           2.6864    4.3797    3.0897 H       1  UNL1        0.0572
     10 H           4.9088    3.8798    4.4799 H       1  UNL1        0.0572
@<TRIPOS>BOND
     1     7     2    1
     2     8     3    1
     3     2     3    1
     4     2     1    1
     5     3     4    1
     6     1     6    1
     7     1     5    1
     8     4     9    1
     9     4     5    2
    10     5    10    1
