@<TRIPOS>MOLECULE
1,2,3,4,5
 10 10 0 0 0
SMALL
GASTEIGER

@<TRIPOS>ATOM
      1 C           0.4952    4.8841    2.1454 C.3     1  UNL1       -0.0127
      2 C           0.4477    5.7088    0.9825 C.2     1  UNL1       -0.0837
      3 C           1.5023    6.6338    1.0566 C.2     1  UNL1       -0.0837
      4 C           2.2067    6.4052    2.2779 C.3     1  UNL1       -0.0127
      5 C           1.5530    5.3564    2.9597 C.3     1  UNL1       -0.0235
      6 H          -0.2755    4.1924    2.4578 H       1  UNL1        0.0352
      7 H          -0.3477    5.7176    0.2489 H       1  UNL1        0.0572
      8 H           1.6517    7.4745    0.3908 H       1  UNL1        0.0572
      9 H           2.9590    7.0549    2.7055 H       1  UNL1        0.0352
     10 H           1.7620    5.0340    3.9667 H       1  UNL1        0.0315
@<TRIPOS>BOND
     1     7     2    1
     2     8     3    1
     3     2     3    2
     4     2     1    1
     5     3     4    1
     6     1     6    1
     7     1     5    1
     8     4     9    1
     9     4     5    1
    10     5    10    1
