@<TRIPOS>MOLECULE
1,2,3,4,5
 25 25 0 0 0
SMALL
GASTEIGER

@<TRIPOS>ATOM
      1 C          -1.9661   12.3889   12.2240 C.2     1  UNL1       -0.0477
      2 C          -2.6202   11.6554   13.2612 C.2     1  UNL1       -0.0477
      3 C          -1.8270   11.7701   14.4296 C.2     1  UNL1       -0.0584
      4 C          -0.6418   12.5095   14.0952 C.3     1  UNL1        0.0231
      5 C          -0.7213   12.8667   12.7234 C.2     1  UNL1       -0.0584
      6 C          -2.3500   12.3828   10.7777 C.3     1  UNL1       -0.0395
      7 H          -1.8797   11.5371   10.2705 H       1  UNL1        0.0278
      8 H          -2.0195   13.2950   10.2864 H       1  UNL1        0.0278
      9 H          -3.4261   12.2897   10.6552 H       1  UNL1        0.0278
     10 C          -3.7875   10.7432   13.0535 C.3     1  UNL1       -0.0395
     11 H          -4.6530   11.2723   12.6631 H       1  UNL1        0.0278
     12 H          -4.0709   10.2569   13.9827 H       1  UNL1        0.0278
     13 H          -3.5151    9.9669   12.3356 H       1  UNL1        0.0278
     14 C          -2.0378   11.0499   15.7255 C.3     1  UNL1       -0.0424
     15 H          -1.5472   10.0746   15.7018 H       1  UNL1        0.0275
     16 H          -3.0954   10.8980   15.9218 H       1  UNL1        0.0275
     17 H          -1.6192   11.6184   16.5523 H       1  UNL1        0.0275
     18 C           0.5434   12.6517   14.9999 C.3     1  UNL1       -0.0510
     19 H           1.2343   13.4059   14.6331 H       1  UNL1        0.0242
     20 H           1.0761   11.7011   15.0670 H       1  UNL1        0.0242
     21 H           0.2341   12.9356   16.0035 H       1  UNL1        0.0242
     22 C           0.3314   13.5120   11.8772 C.3     1  UNL1       -0.0424
     23 H           1.2051   13.7694   12.4681 H       1  UNL1        0.0275
     24 H          -0.0494   14.4204   11.4133 H       1  UNL1        0.0275
     25 H           0.6415   12.8281   11.0857 H       1  UNL1        0.0275
@<TRIPOS>BOND
     1     7     6    1
     2     8     6    1
     3     9     6    1
     4     6     1    1
     5    25    22    1
     6    24    22    1
     7    22    23    1
     8    22     5    1
     9     1     5    2
    10     1     2    1
    11    13    10    1
    12    11    10    1
    13     5     4    1
    14    10     2    1
    15    10    12    1
    16     2     3    2
    17     4     3    1
    18     4    18    1
    19     3    14    1
    20    19    18    1
    21    18    20    1
    22    18    21    1
    23    15    14    1
    24    14    16    1
    25    14    17    1
