@<TRIPOS>MOLECULE
1,2,3,4,5
 25 25 0 0 0
SMALL
GASTEIGER

@<TRIPOS>ATOM
      1 C          -1.0513    0.7849    4.1367 C.3     1  UNL1        0.0052
      2 C          -0.3532   -0.3865    4.5894 C.3     1  UNL1       -0.0053
      3 C           0.3207   -0.0542    5.8014 C.3     1  UNL1        0.0052
      4 C          -0.0287    1.3015    6.1482 C.2     1  UNL1       -0.0658
      5 C          -0.8863    1.8057    5.1321 C.2     1  UNL1       -0.0658
      6 C          -2.1064    0.7868    3.0668 C.3     1  UNL1       -0.0545
      7 H          -3.0295    0.3529    3.4590 H       1  UNL1        0.0239
      8 H          -1.7837    0.2001    2.2104 H       1  UNL1        0.0239
      9 H          -2.3211    1.7980    2.7269 H       1  UNL1        0.0239
     10 C          -0.5408   -1.7727    4.0510 C.3     1  UNL1       -0.0574
     11 H          -0.7595   -1.7486    2.9877 H       1  UNL1        0.0236
     12 H          -1.3786   -2.2464    4.5689 H       1  UNL1        0.0236
     13 H           0.3469   -2.3840    4.2006 H       1  UNL1        0.0236
     14 C           0.9240   -1.0418    6.7622 C.3     1  UNL1       -0.0545
     15 H           0.1669   -1.3474    7.4884 H       1  UNL1        0.0239
     16 H           1.7599   -0.6098    7.3107 H       1  UNL1        0.0239
     17 H           1.2759   -1.9307    6.2437 H       1  UNL1        0.0239
     18 C           0.2339    1.9413    7.4796 C.3     1  UNL1       -0.0430
     19 H           1.1914    1.6245    7.8891 H       1  UNL1        0.0275
     20 H          -0.5492    1.6513    8.1846 H       1  UNL1        0.0275
     21 H           0.2374    3.0270    7.4048 H       1  UNL1        0.0275
     22 C          -1.6556    3.0918    5.1972 C.3     1  UNL1       -0.0430
     23 H          -2.6092    2.9184    5.7017 H       1  UNL1        0.0275
     24 H          -1.8648    3.4817    4.2028 H       1  UNL1        0.0275
     25 H          -1.1114    3.8525    5.7537 H       1  UNL1        0.0275
@<TRIPOS>BOND
     1     8     6    1
     2     9     6    1
     3    11    10    1
     4     6     7    1
     5     6     1    1
     6    10    13    1
     7    10    12    1
     8    10     2    1
     9     1     2    1
    10     1     5    1
    11    24    22    1
    12     2     3    1
    13     5    22    1
    14     5     4    2
    15    22    23    1
    16    22    25    1
    17     3     4    1
    18     3    14    1
    19     4    18    1
    20    17    14    1
    21    14    16    1
    22    14    15    1
    23    21    18    1
    24    18    19    1
    25    18    20    1
