@<TRIPOS>MOLECULE
1,2,3,4,5
 13 13 0 0 0
SMALL
GASTEIGER

@<TRIPOS>ATOM
      1 C          -3.6668    7.5493   14.6981 C.2     1  UNL1       -0.0650
      2 C          -4.9214    7.0895   15.1464 C.3     1  UNL1        0.0084
      3 C          -5.3092    5.9909   14.3434 C.2     1  UNL1       -0.0761
      4 C          -4.2925    5.7753   13.3873 C.2     1  UNL1       -0.0651
      5 C          -3.2774    6.7327   13.6099 C.2     1  UNL1       -0.0625
      6 C          -2.9398    8.7684   15.1884 C.3     1  UNL1       -0.0429
      7 H          -5.5335    7.5766   15.8922 H       1  UNL1        0.0397
      8 H          -6.2787    5.5157   14.3533 H       1  UNL1        0.0578
      9 H          -4.3566    5.1139   12.5334 H       1  UNL1        0.0615
     10 H          -2.4147    6.9032   12.9803 H       1  UNL1        0.0617
     11 H          -3.3615    9.1161   16.1307 H       1  UNL1        0.0275
     12 H          -3.0271    9.5780   14.4614 H       1  UNL1        0.0275
     13 H          -1.8791    8.5593   15.3269 H       1  UNL1        0.0275
@<TRIPOS>BOND
     1     9     4    1
     2    10     5    1
     3     4     5    1
     4     4     3    2
     5     5     1    2
     6     3     8    1
     7     3     2    1
     8    12     6    1
     9     1     2    1
    10     1     6    1
    11     2     7    1
    12     6    13    1
    13     6    11    1
