@<TRIPOS>MOLECULE
1,2,4,6,8
 13 13 0 0 0
SMALL
GASTEIGER

@<TRIPOS>ATOM
      1 C          -1.5431    5.5613    2.9293 C.3     1  UNL1        0.0167
      2 C          -0.9967    5.6845    4.2423 C.2     1  UNL1       -0.0733
      3 H          -1.5680    5.6731    5.1620 H       1  UNL1        0.0581
      4 C           0.3357    6.1319    4.1190 C.2     1  UNL1       -0.0651
      5 H           0.9739    6.4285    4.9372 H       1  UNL1        0.0615
      6 C           0.6213    6.2876    2.7542 C.2     1  UNL1       -0.0651
      7 H           1.5365    6.6850    2.3400 H       1  UNL1        0.0615
      8 C          -0.5206    5.9325    2.0218 C.2     1  UNL1       -0.0733
      9 H          -0.6387    6.0269    0.9517 H       1  UNL1        0.0581
     10 C          -2.9902    5.3252    2.5783 C.3     1  UNL1       -0.0515
     11 H          -3.0993    4.5719    1.7942 H       1  UNL1        0.0241
     12 H          -3.4355    6.2493    2.2031 H       1  UNL1        0.0241
     13 H          -3.5650    5.0150    3.4512 H       1  UNL1        0.0241
@<TRIPOS>BOND
     1     9     8    1
     2    11    10    1
     3     8     6    2
     4     8     1    1
     5    12    10    1
     6     7     6    1
     7    10     1    1
     8    10    13    1
     9     6     4    1
    10     1     2    1
    11     4     2    2
    12     4     5    1
    13     2     3    1
