@<TRIPOS>MOLECULE
1,2,3,4,5
 13 13 0 0 0
SMALL
GASTEIGER

@<TRIPOS>ATOM
      1 C          -1.9433    2.9699   15.8720 C.2     1  UNL1       -0.0650
      2 C          -2.8982    2.6445   16.8417 C.3     1  UNL1        0.0084
      3 C          -4.1709    2.6587   16.2517 C.2     1  UNL1       -0.0761
      4 C          -4.0284    3.0155   14.8987 C.2     1  UNL1       -0.0651
      5 C          -2.6295    3.2176   14.6488 C.2     1  UNL1       -0.0625
      6 C          -0.4557    2.8859   16.0500 C.3     1  UNL1       -0.0429
      7 H          -2.6782    2.3381   17.8522 H       1  UNL1        0.0397
      8 H          -5.0857    2.3555   16.7392 H       1  UNL1        0.0578
      9 H          -4.7930    2.9188   14.1392 H       1  UNL1        0.0615
     10 H          -2.1576    3.2589   13.6712 H       1  UNL1        0.0617
     11 H          -0.1472    1.8393   16.0946 H       1  UNL1        0.0275
     12 H          -0.1427    3.3681   16.9757 H       1  UNL1        0.0275
     13 H           0.0655    3.3611   15.2221 H       1  UNL1        0.0275
@<TRIPOS>BOND
     1    10     5    1
     2     9     4    1
     3     5     4    1
     4     5     1    2
     5     4     3    2
     6    13     6    1
     7     1     6    1
     8     1     2    1
     9     6    11    1
    10     6    12    1
    11     3     8    1
    12     3     2    1
    13     2     7    1
