@<TRIPOS>MOLECULE
1,2,4,6,8
 13 13 0 0 0
SMALL
GASTEIGER

@<TRIPOS>ATOM
      1 C          -1.9404    1.7749    3.8323 C.2     1  UNL1       -0.0650
      2 C          -0.6856    1.1360    3.8681 C.2     1  UNL1       -0.0625
      3 H          -0.4215    0.2554    3.3005 H       1  UNL1        0.0617
      4 C           0.0895    1.7283    4.8904 C.2     1  UNL1       -0.0651
      5 H           1.0432    1.3687    5.2504 H       1  UNL1        0.0615
      6 C          -0.6831    2.7492    5.4838 C.2     1  UNL1       -0.0761
      7 H          -0.4365    3.2870    6.3885 H       1  UNL1        0.0578
      8 C          -1.9346    2.7805    4.8218 C.3     1  UNL1        0.0084
      9 H          -2.8049    3.3319    5.1517 H       1  UNL1        0.0397
     10 C          -3.1288    1.3462    3.0205 C.3     1  UNL1       -0.0429
     11 H          -3.9055    2.1096    3.0334 H       1  UNL1        0.0275
     12 H          -3.5520    0.4289    3.4347 H       1  UNL1        0.0275
     13 H          -2.8544    1.1459    1.9854 H       1  UNL1        0.0275
@<TRIPOS>BOND
     1    13    10    1
     2    10    11    1
     3    10    12    1
     4    10     1    1
     5     3     2    1
     6     1     2    2
     7     1     8    1
     8     2     4    1
     9     8     9    1
    10     8     6    1
    11     4     5    1
    12     4     6    2
    13     6     7    1
