@<TRIPOS>MOLECULE
1,2,3,4,5
 25 25 0 0 0
SMALL
GASTEIGER

@<TRIPOS>ATOM
      1 C          -1.0329    0.6968   19.1703 C.3     1  UNL1        0.0052
      2 C          -0.3550    1.4914   18.2055 C.3     1  UNL1       -0.0053
      3 C          -1.2138    1.6313   17.0687 C.3     1  UNL1        0.0052
      4 C          -2.3942    0.8559   17.3077 C.2     1  UNL1       -0.0658
      5 C          -2.2986    0.3002   18.6103 C.2     1  UNL1       -0.0658
      6 C          -0.4358    0.1529   20.4310 C.3     1  UNL1       -0.0545
      7 H          -1.2013   -0.0351   21.1799 H       1  UNL1        0.0239
      8 H           0.2895    0.8453   20.8508 H       1  UNL1        0.0239
      9 H           0.0742   -0.7897   20.2218 H       1  UNL1        0.0239
     10 C           1.0664    1.9514   18.2934 C.3     1  UNL1       -0.0574
     11 H           1.2251    2.8537   17.7083 H       1  UNL1        0.0236
     12 H           1.7275    1.1734   17.9067 H       1  UNL1        0.0236
     13 H           1.3501    2.1566   19.3226 H       1  UNL1        0.0236
     14 C          -0.8439    2.2291   15.7466 C.3     1  UNL1       -0.0545
     15 H          -0.0762    2.9901   15.8607 H       1  UNL1        0.0239
     16 H          -1.7118    2.6866   15.2774 H       1  UNL1        0.0239
     17 H          -0.4630    1.4534   15.0794 H       1  UNL1        0.0239
     18 C          -3.4554    0.5796   16.2920 C.3     1  UNL1       -0.0430
     19 H          -4.3485    0.1749   16.7594 H       1  UNL1        0.0275
     20 H          -3.0866   -0.1431   15.5620 H       1  UNL1        0.0275
     21 H          -3.7311    1.4899   15.7652 H       1  UNL1        0.0275
     22 C          -3.2281   -0.7121   19.2055 C.3     1  UNL1       -0.0430
     23 H          -3.1876   -0.6904   20.2918 H       1  UNL1        0.0275
     24 H          -2.9460   -1.7133   18.8737 H       1  UNL1        0.0275
     25 H          -4.2549   -0.5273   18.8994 H       1  UNL1        0.0275
@<TRIPOS>BOND
     1    17    14    1
     2    16    14    1
     3    20    18    1
     4    14    15    1
     5    14     3    1
     6    21    18    1
     7    18    19    1
     8    18     4    1
     9     3     4    1
    10     3     2    1
    11     4     5    2
    12    11    10    1
    13    12    10    1
    14     2    10    1
    15     2     1    1
    16    10    13    1
    17     5     1    1
    18     5    22    1
    19    24    22    1
    20    25    22    1
    21     1     6    1
    22    22    23    1
    23     9     6    1
    24     6     8    1
    25     6     7    1
