@<TRIPOS>MOLECULE
1,2,3,4,5
 25 25 0 0 0
SMALL
GASTEIGER

@<TRIPOS>ATOM
      1 C           7.9597    0.6946    4.5465 C.2     1  UNL1       -0.0584
      2 C           8.6433    1.1658    5.7006 C.3     1  UNL1        0.0231
      3 C           9.7218    0.2578    5.9791 C.2     1  UNL1       -0.0584
      4 C           9.6755   -0.7873    5.0126 C.2     1  UNL1       -0.0477
      5 C           8.6167   -0.5014    4.1004 C.2     1  UNL1       -0.0477
      6 C           6.6643    1.2249    4.0159 C.3     1  UNL1       -0.0424
      7 H           6.5680    1.0328    2.9502 H       1  UNL1        0.0275
      8 H           6.5822    2.2966    4.1790 H       1  UNL1        0.0275
      9 H           5.8313    0.7377    4.5263 H       1  UNL1        0.0275
     10 C           8.1891    2.2758    6.5965 C.3     1  UNL1       -0.0510
     11 H           9.0305    2.7439    7.1014 H       1  UNL1        0.0242
     12 H           7.5125    1.8812    7.3570 H       1  UNL1        0.0242
     13 H           7.6594    3.0410    6.0347 H       1  UNL1        0.0242
     14 C          10.5683    0.2618    7.2147 C.3     1  UNL1       -0.0424
     15 H          10.6789    1.2682    7.6102 H       1  UNL1        0.0275
     16 H          11.5600   -0.1330    7.0074 H       1  UNL1        0.0275
     17 H          10.1061   -0.3595    7.9843 H       1  UNL1        0.0275
     18 C          10.4977   -2.0347    5.0240 C.3     1  UNL1       -0.0395
     19 H          10.7261   -2.3579    4.0116 H       1  UNL1        0.0278
     20 H           9.9473   -2.8325    5.5259 H       1  UNL1        0.0278
     21 H          11.4338   -1.8765    5.5518 H       1  UNL1        0.0278
     22 C           8.1133   -1.4362    3.0444 C.3     1  UNL1       -0.0395
     23 H           7.5701   -0.8992    2.2708 H       1  UNL1        0.0278
     24 H           7.4390   -2.1711    3.4886 H       1  UNL1        0.0278
     25 H           8.9374   -1.9688    2.5761 H       1  UNL1        0.0278
@<TRIPOS>BOND
     1    23    22    1
     2    25    22    1
     3     7     6    1
     4    22    24    1
     5    22     5    1
     6    19    18    1
     7     6     8    1
     8     6     9    1
     9     6     1    1
    10     5     1    2
    11     5     4    1
    12     1     2    1
    13     4    18    1
    14     4     3    2
    15    18    20    1
    16    18    21    1
    17     2     3    1
    18     2    10    1
    19     3    14    1
    20    13    10    1
    21    10    11    1
    22    10    12    1
    23    16    14    1
    24    14    15    1
    25    14    17    1
