@<TRIPOS>MOLECULE
1,2,3,4,5
 25 25 0 0 0
SMALL
GASTEIGER

@<TRIPOS>ATOM
      1 C           3.9037    2.3588    0.0040 C.2     1  UNL1       -0.0477
      2 C           2.6046    1.8884    0.3674 C.2     1  UNL1       -0.0477
      3 C           2.7297    1.1527    1.5807 C.2     1  UNL1       -0.0584
      4 C           4.1071    1.1618    1.9603 C.3     1  UNL1        0.0231
      5 C           4.8314    1.9038    0.9753 C.2     1  UNL1       -0.0584
      6 C           4.2545    2.9353   -1.3362 C.3     1  UNL1       -0.0395
      7 C           1.4036    1.8467   -0.5282 C.3     1  UNL1       -0.0395
      8 C           1.6586    0.3038    2.1965 C.3     1  UNL1       -0.0424
      9 C           4.7222    0.3034    3.0246 C.3     1  UNL1       -0.0510
     10 C           6.3260    1.9471    0.8699 C.3     1  UNL1       -0.0424
     11 H           3.4470    3.5518   -1.7287 H       1  UNL1        0.0278
     12 H           4.4315    2.1212   -2.0438 H       1  UNL1        0.0278
     13 H           5.1611    3.5384   -1.2937 H       1  UNL1        0.0278
     14 H           0.4796    1.9279    0.0409 H       1  UNL1        0.0278
     15 H           1.3873    0.8932   -1.0631 H       1  UNL1        0.0278
     16 H           1.4190    2.6472   -1.2637 H       1  UNL1        0.0278
     17 H           1.8273    0.1753    3.2645 H       1  UNL1        0.0275
     18 H           1.6515   -0.6838    1.7286 H       1  UNL1        0.0275
     19 H           0.6770    0.7535    2.0582 H       1  UNL1        0.0275
     20 H           4.9457   -0.6867    2.6193 H       1  UNL1        0.0242
     21 H           4.0461    0.1829    3.8699 H       1  UNL1        0.0242
     22 H           5.6502    0.7376    3.3922 H       1  UNL1        0.0242
     23 H           6.6564    2.7397    0.2006 H       1  UNL1        0.0275
     24 H           6.6955    0.9986    0.4720 H       1  UNL1        0.0275
     25 H           6.7886    2.1050    1.8433 H       1  UNL1        0.0275
@<TRIPOS>BOND
     1    12     6    1
     2    11     6    1
     3     6    13    1
     4     6     1    1
     5    16     7    1
     6    15     7    1
     7     7    14    1
     8     7     2    1
     9     1     2    1
    10     1     5    2
    11    23    10    1
    12     2     3    2
    13    24    10    1
    14    10     5    1
    15    10    25    1
    16     5     4    1
    17     3     4    1
    18     3     8    1
    19    18     8    1
    20     4     9    1
    21    19     8    1
    22     8    17    1
    23    20     9    1
    24     9    22    1
    25     9    21    1
