@<TRIPOS>MOLECULE
1,2,3,4,5
 25 25 0 0 0
SMALL
GASTEIGER

@<TRIPOS>ATOM
      1 C           8.0324    8.3137   12.6406 C.3     1  UNL1        0.0052
      2 C           7.1815    8.5809   11.5106 C.2     1  UNL1       -0.0658
      3 C           7.1890    7.4435   10.6739 C.2     1  UNL1       -0.0658
      4 C           7.9976    6.4428   11.2922 C.3     1  UNL1        0.0052
      5 C           8.5598    7.0072   12.4848 C.3     1  UNL1       -0.0053
      6 C           8.5783    9.3655   13.5646 C.3     1  UNL1       -0.0545
      7 C           6.6347    9.9277   11.1385 C.3     1  UNL1       -0.0430
      8 C           6.5758    7.3477    9.3112 C.3     1  UNL1       -0.0430
      9 C           8.4552    5.1687   10.6440 C.3     1  UNL1       -0.0545
     10 C           9.6463    6.3863   13.3073 C.3     1  UNL1       -0.0574
     11 H           7.8335   10.1226   13.8120 H       1  UNL1        0.0239
     12 H           9.4182    9.8735   13.0824 H       1  UNL1        0.0239
     13 H           8.9358    8.9322   14.4969 H       1  UNL1        0.0239
     14 H           5.7139    9.8380   10.5636 H       1  UNL1        0.0275
     15 H           7.3624   10.4643   10.5235 H       1  UNL1        0.0275
     16 H           6.4312   10.5382   12.0182 H       1  UNL1        0.0275
     17 H           6.2850    6.3240    9.0827 H       1  UNL1        0.0275
     18 H           7.2962    7.6748    8.5573 H       1  UNL1        0.0275
     19 H           5.6913    7.9767    9.2302 H       1  UNL1        0.0275
     20 H           8.6904    4.4129   11.3924 H       1  UNL1        0.0239
     21 H           9.3532    5.3535   10.0492 H       1  UNL1        0.0239
     22 H           7.6864    4.7660    9.9861 H       1  UNL1        0.0239
     23 H           9.6535    6.7910   14.3176 H       1  UNL1        0.0236
     24 H          10.6190    6.5869   12.8508 H       1  UNL1        0.0236
     25 H           9.5191    5.3071   13.3725 H       1  UNL1        0.0236
@<TRIPOS>BOND
     1    18     8    1
     2    17     8    1
     3    19     8    1
     4     8     3    1
     5    22     9    1
     6    21     9    1
     7    15     7    1
     8    14     7    1
     9     9     4    1
    10     9    20    1
    11     3     4    1
    12     3     2    2
    13     7     2    1
    14     7    16    1
    15     4     5    1
    16     2     1    1
    17     5     1    1
    18     5    10    1
    19     1     6    1
    20    24    10    1
    21    12     6    1
    22    10    25    1
    23    10    23    1
    24     6    11    1
    25     6    13    1
