@<TRIPOS>MOLECULE
1,2,3,4,5
 25 25 0 0 0
SMALL
GASTEIGER

@<TRIPOS>ATOM
      1 C           1.3446   15.6941    7.4195 C.3     1  UNL1        0.0052
      2 C           2.5411   15.0287    7.0464 C.3     1  UNL1       -0.0053
      3 C           2.5538   14.9235    5.6145 C.3     1  UNL1        0.0052
      4 C           1.3882   15.5580    5.1165 C.2     1  UNL1       -0.0658
      5 C           0.6079   15.9859    6.2270 C.2     1  UNL1       -0.0658
      6 C           0.9947   16.1773    8.7937 C.3     1  UNL1       -0.0545
      7 C           3.6910   14.7472    7.9685 C.3     1  UNL1       -0.0574
      8 C           3.7400   14.5609    4.7625 C.3     1  UNL1       -0.0545
      9 C           1.1525   15.9345    3.6864 C.3     1  UNL1       -0.0430
     10 C          -0.6064   16.8626    6.1579 C.3     1  UNL1       -0.0430
     11 H           1.4110   17.1744    8.9570 H       1  UNL1        0.0239
     12 H           1.3928   15.5127    9.5586 H       1  UNL1        0.0239
     13 H          -0.0850   16.2332    8.9231 H       1  UNL1        0.0239
     14 H           4.3002   15.6466    8.0920 H       1  UNL1        0.0236
     15 H           4.3377   13.9575    7.5868 H       1  UNL1        0.0236
     16 H           3.3367   14.4465    8.9537 H       1  UNL1        0.0236
     17 H           4.1583   15.4645    4.3117 H       1  UNL1        0.0239
     18 H           3.4691   13.8805    3.9519 H       1  UNL1        0.0239
     19 H           4.5302   14.0967    5.3526 H       1  UNL1        0.0239
     20 H           1.6021   16.9126    3.4940 H       1  UNL1        0.0275
     21 H           0.0909   16.0032    3.4619 H       1  UNL1        0.0275
     22 H           1.6057   15.2191    3.0022 H       1  UNL1        0.0275
     23 H          -0.3093   17.9139    6.1806 H       1  UNL1        0.0275
     24 H          -1.2706   16.6773    7.0009 H       1  UNL1        0.0275
     25 H          -1.1656   16.6871    5.2409 H       1  UNL1        0.0275
@<TRIPOS>BOND
     1    22     9    1
     2    21     9    1
     3    20     9    1
     4     9     4    1
     5    18     8    1
     6    17     8    1
     7     8    19    1
     8     8     3    1
     9     4     3    1
    10     4     5    2
    11    25    10    1
    12     3     2    1
    13    10    23    1
    14    10     5    1
    15    10    24    1
    16     5     1    1
    17     2     1    1
    18     2     7    1
    19     1     6    1
    20    15     7    1
    21     7    14    1
    22     7    16    1
    23     6    13    1
    24     6    11    1
    25     6    12    1
