@<TRIPOS>MOLECULE
1,2,3,4,5
 13 13 0 0 0
SMALL
GASTEIGER

@<TRIPOS>ATOM
      1 C           8.3683    1.4413    9.1405 C.2     1  UNL1       -0.0625
      2 C           9.6720    0.9630    9.4012 C.2     1  UNL1       -0.0651
      3 C          10.4245    2.0181    9.9443 C.2     1  UNL1       -0.0761
      4 C           9.5892    3.1627   10.0031 C.3     1  UNL1        0.0084
      5 C           8.3269    2.8143    9.4652 C.2     1  UNL1       -0.0650
      6 C           7.2516    3.7823    9.0565 C.3     1  UNL1       -0.0429
      7 H           7.5972    0.9020    8.6028 H       1  UNL1        0.0617
      8 H          10.0628    0.0029    9.1007 H       1  UNL1        0.0615
      9 H          11.4941    1.9981   10.1157 H       1  UNL1        0.0578
     10 H           9.9014    4.1713   10.2554 H       1  UNL1        0.0397
     11 H           7.6033    4.3720    8.2067 H       1  UNL1        0.0275
     12 H           6.3510    3.2540    8.7485 H       1  UNL1        0.0275
     13 H           6.9991    4.4727    9.8599 H       1  UNL1        0.0275
@<TRIPOS>BOND
     1    11     6    1
     2     7     1    1
     3    12     6    1
     4     6     5    1
     5     6    13    1
     6     8     2    1
     7     1     2    1
     8     1     5    2
     9     2     3    2
    10     5     4    1
    11     3     4    1
    12     3     9    1
    13     4    10    1
