@<TRIPOS>MOLECULE
1,2,3,4,5
 13 13 0 0 0
SMALL
GASTEIGER

@<TRIPOS>ATOM
      1 C           9.7073    0.7940   13.8997 C.3     1  UNL1        0.0084
      2 C          10.8197    1.0461   13.0569 C.2     1  UNL1       -0.0761
      3 C          10.9146    2.4393   12.8755 C.2     1  UNL1       -0.0651
      4 C           9.8731    3.0465   13.5984 C.2     1  UNL1       -0.0625
      5 C           9.1207    2.0360   14.2370 C.2     1  UNL1       -0.0650
      6 C           8.0300    2.2649   15.2460 C.3     1  UNL1       -0.0429
      7 H           9.4569   -0.1566   14.3546 H       1  UNL1        0.0397
      8 H          11.5519    0.3156   12.7368 H       1  UNL1        0.0578
      9 H          11.7295    2.9658   12.3946 H       1  UNL1        0.0615
     10 H           9.7227    4.1113   13.7242 H       1  UNL1        0.0617
     11 H           8.4658    2.5467   16.2078 H       1  UNL1        0.0275
     12 H           7.3712    3.0735   14.9295 H       1  UNL1        0.0275
     13 H           7.4382    1.3632   15.3973 H       1  UNL1        0.0275
@<TRIPOS>BOND
     1     9     3    1
     2     8     2    1
     3     3     2    2
     4     3     4    1
     5     2     1    1
     6     4    10    1
     7     4     5    2
     8     1     5    1
     9     1     7    1
    10     5     6    1
    11    12     6    1
    12     6    13    1
    13     6    11    1
