@<TRIPOS>MOLECULE
1,2,3,4,5
 25 25 0 0 0
SMALL
GASTEIGER

@<TRIPOS>ATOM
      1 C           2.3356    2.8132   -4.1104 C.2     1  UNL1       -0.0658
      2 C           3.4461    2.5808   -3.2629 C.3     1  UNL1        0.0052
      3 C           3.8281    3.8248   -2.6932 C.3     1  UNL1       -0.0053
      4 C           3.0111    4.8427   -3.2622 C.3     1  UNL1        0.0052
      5 C           2.0851    4.2158   -4.1433 C.2     1  UNL1       -0.0658
      6 C           1.6809    1.8306   -5.0376 C.3     1  UNL1       -0.0430
      7 C           4.3318    1.3690   -3.2999 C.3     1  UNL1       -0.0545
      8 C           5.1057    4.0971   -1.9517 C.3     1  UNL1       -0.0574
      9 C           3.3471    6.3026   -3.2657 C.3     1  UNL1       -0.0545
     10 C           1.2898    4.9305   -5.1958 C.3     1  UNL1       -0.0430
     11 H           0.5944    1.8810   -4.9562 H       1  UNL1        0.0275
     12 H           1.9495    2.0611   -6.0714 H       1  UNL1        0.0275
     13 H           1.9987    0.8107   -4.8322 H       1  UNL1        0.0275
     14 H           5.1611    1.5743   -3.9834 H       1  UNL1        0.0239
     15 H           4.7638    1.1335   -2.3305 H       1  UNL1        0.0239
     16 H           3.8099    0.4930   -3.6736 H       1  UNL1        0.0239
     17 H           4.9450    4.7576   -1.0990 H       1  UNL1        0.0236
     18 H           5.8153    4.5924   -2.6201 H       1  UNL1        0.0236
     19 H           5.5674    3.1764   -1.6021 H       1  UNL1        0.0236
     20 H           3.7914    6.6112   -2.3228 H       1  UNL1        0.0239
     21 H           4.0672    6.5020   -4.0657 H       1  UNL1        0.0239
     22 H           2.4619    6.9057   -3.4503 H       1  UNL1        0.0239
     23 H           0.5235    4.2859   -5.6189 H       1  UNL1        0.0275
     24 H           1.9624    5.2427   -6.0005 H       1  UNL1        0.0275
     25 H           0.8044    5.8189   -4.7969 H       1  UNL1        0.0275
@<TRIPOS>BOND
     1    12     6    1
     2    24    10    1
     3    23    10    1
     4    10    25    1
     5    10     5    1
     6     6    11    1
     7     6    13    1
     8     6     1    1
     9     5     1    2
    10     5     4    1
    11     1     2    1
    12    21     9    1
    13    14     7    1
    14    16     7    1
    15    22     9    1
    16     7     2    1
    17     7    15    1
    18     9     4    1
    19     9    20    1
    20     2     3    1
    21     4     3    1
    22     3     8    1
    23    18     8    1
    24     8    19    1
    25     8    17    1
