@<TRIPOS>MOLECULE
1,2,3,4,5
 25 25 0 0 0
SMALL
GASTEIGER

@<TRIPOS>ATOM
      1 C           0.2234    2.8924   -0.2224 C.2     1  UNL1       -0.0584
      2 C           0.2392    1.8279   -1.1647 C.2     1  UNL1       -0.0477
      3 C           1.5517    1.2854   -1.1953 C.2     1  UNL1       -0.0477
      4 C           2.3588    2.0367   -0.3027 C.2     1  UNL1       -0.0584
      5 C           1.5401    3.0354    0.2944 C.3     1  UNL1        0.0231
      6 C          -0.9953    3.5621    0.3336 C.3     1  UNL1       -0.0424
      7 C          -0.9593    1.1417   -1.7495 C.3     1  UNL1       -0.0395
      8 C           1.8428   -0.0746   -1.7602 C.3     1  UNL1       -0.0395
      9 C           3.6982    1.6494    0.2567 C.3     1  UNL1       -0.0424
     10 C           1.8947    3.7784    1.5472 C.3     1  UNL1       -0.0510
     11 H          -1.2869    3.0726    1.2671 H       1  UNL1        0.0275
     12 H          -1.8288    3.4885   -0.3625 H       1  UNL1        0.0275
     13 H          -0.8038    4.6130    0.5440 H       1  UNL1        0.0275
     14 H          -1.2581    0.3159   -1.0971 H       1  UNL1        0.0278
     15 H          -0.7378    0.7266   -2.7319 H       1  UNL1        0.0278
     16 H          -1.8022    1.8229   -1.8404 H       1  UNL1        0.0278
     17 H           1.2507   -0.8137   -1.2132 H       1  UNL1        0.0278
     18 H           1.5645   -0.1516   -2.8105 H       1  UNL1        0.0278
     19 H           2.8889   -0.3454   -1.6512 H       1  UNL1        0.0278
     20 H           4.1643    0.8534   -0.3187 H       1  UNL1        0.0275
     21 H           3.5634    1.2798    1.2771 H       1  UNL1        0.0275
     22 H           4.3831    2.4955    0.3029 H       1  UNL1        0.0275
     23 H           1.5861    3.1831    2.4122 H       1  UNL1        0.0242
     24 H           2.9662    3.9458    1.6240 H       1  UNL1        0.0242
     25 H           1.3879    4.7368    1.5997 H       1  UNL1        0.0242
@<TRIPOS>BOND
     1    18     8    1
     2    15     7    1
     3    16     7    1
     4     8    19    1
     5     8    17    1
     6     8     3    1
     7     7     2    1
     8     7    14    1
     9     3     2    1
    10     3     4    2
    11     2     1    2
    12    12     6    1
    13    20     9    1
    14     4     9    1
    15     4     5    1
    16     1     5    1
    17     1     6    1
    18     9    22    1
    19     9    21    1
    20     5    10    1
    21     6    13    1
    22     6    11    1
    23    10    25    1
    24    10    24    1
    25    10    23    1
