@<TRIPOS>MOLECULE
1,2,4
 74 80 0 0 0
SMALL
GASTEIGER

@<TRIPOS>ATOM
      1 P           0.7778    7.9137   11.7932 P.3     1  UNL1        0.0000
      2 P          -0.1404   11.8372   13.7297 P.3     1  UNL1        0.0000
      3 SI          0.9326   12.2685    8.1564 Si      1  UNL1        0.0000
      4 O           0.5708   10.8254   10.9859 O.3     1  UNL1        0.0000
      5 C           1.9388    7.8849    9.3065 C.ar    1  UNL1        0.0000
      6 H           2.0791    6.8394    9.5472 H       1  UNL1        0.0000
      7 C           1.3566    8.7120   10.2595 C.ar    1  UNL1        0.0000
      8 C           1.1220   10.0707    9.9794 C.ar    1  UNL1        0.0000
      9 C           1.4457   10.5512    8.7064 C.ar    1  UNL1        0.0000
     10 C           2.0531    9.7015    7.7895 C.ar    1  UNL1        0.0000
     11 H           2.3026   10.1014    6.8180 H       1  UNL1        0.0000
     12 C           2.3233    8.3797    8.0767 C.ar    1  UNL1        0.0000
     13 H           2.7952    7.7376    7.3486 H       1  UNL1        0.0000
     14 C           0.3049   12.1725   10.9513 C.ar    1  UNL1        0.0000
     15 C           0.3766   12.9678    9.8044 C.ar    1  UNL1        0.0000
     16 C          -0.0924   12.7725   12.1622 C.ar    1  UNL1        0.0000
     17 C          -0.4363   14.1185   12.1973 C.ar    1  UNL1        0.0000
     18 H          -0.7554   14.5495   13.1363 H       1  UNL1        0.0000
     19 C          -0.3797   14.8983   11.0588 C.ar    1  UNL1        0.0000
     20 H          -0.6517   15.9422   11.0959 H       1  UNL1        0.0000
     21 C           0.0357   14.3133    9.8820 C.ar    1  UNL1        0.0000
     22 H           0.0967   14.9039    8.9802 H       1  UNL1        0.0000
     23 C           2.3818   13.2643    7.4281 C.3     1  UNL1        0.0000
     24 H           2.7431   12.8106    6.5106 H       1  UNL1        0.0000
     25 H           3.2176   13.3263    8.1187 H       1  UNL1        0.0000
     26 H           2.0734   14.2774    7.1900 H       1  UNL1        0.0000
     27 C          -0.5128   12.1673    6.9181 C.3     1  UNL1        0.0000
     28 H          -0.8645   13.1577    6.6444 H       1  UNL1        0.0000
     29 H          -1.3553   11.6218    7.3343 H       1  UNL1        0.0000
     30 H          -0.2103   11.6612    6.0061 H       1  UNL1        0.0000
     31 C           4.2884    5.6227   13.6643 C.ar    1  UNL1        0.0000
     32 H           5.0988    5.0865   14.1368 H       1  UNL1        0.0000
     33 C           2.9944    5.4835   14.1388 C.ar    1  UNL1        0.0000
     34 H           2.7895    4.8448   14.9862 H       1  UNL1        0.0000
     35 C           1.9625    6.1749   13.5333 C.ar    1  UNL1        0.0000
     36 H           0.9504    6.0896   13.9091 H       1  UNL1        0.0000
     37 C           2.2121    7.0040   12.4420 C.ar    1  UNL1        0.0000
     38 C           3.5143    7.1569   11.9832 C.ar    1  UNL1        0.0000
     39 H           3.7294    7.8336   11.1692 H       1  UNL1        0.0000
     40 C           4.5442    6.4628   12.5934 C.ar    1  UNL1        0.0000
     41 H           5.5560    6.5875   12.2353 H       1  UNL1        0.0000
     42 C          -1.8344    4.7624    9.6930 C.ar    1  UNL1        0.0000
     43 H          -2.4643    4.0451    9.1868 H       1  UNL1        0.0000
     44 C          -2.0899    6.1194    9.5716 C.ar    1  UNL1        0.0000
     45 H          -2.9205    6.4644    8.9730 H       1  UNL1        0.0000
     46 C          -1.2835    7.0324   10.2212 C.ar    1  UNL1        0.0000
     47 H          -1.4912    8.0921   10.1455 H       1  UNL1        0.0000
     48 C          -0.2129    6.5987   11.0005 C.ar    1  UNL1        0.0000
     49 C           0.0391    5.2382   11.1195 C.ar    1  UNL1        0.0000
     50 H           0.8677    4.8865   11.7175 H       1  UNL1        0.0000
     51 C          -0.7721    4.3266   10.4661 C.ar    1  UNL1        0.0000
     52 H          -0.5712    3.2691   10.5617 H       1  UNL1        0.0000
     53 C           2.7371   12.1691   16.5496 C.ar    1  UNL1        0.0000
     54 H           3.0220   11.5945   17.4192 H       1  UNL1        0.0000
     55 C           3.4529   13.3011   16.1926 C.ar    1  UNL1        0.0000
     56 H           4.2964   13.6186   16.7883 H       1  UNL1        0.0000
     57 C           3.0968   14.0146   15.0614 C.ar    1  UNL1        0.0000
     58 H           3.6631   14.8889   14.7734 H       1  UNL1        0.0000
     59 C           2.0224   13.6120   14.2860 C.ar    1  UNL1        0.0000
     60 H           1.7648   14.1691   13.3960 H       1  UNL1        0.0000
     61 C           1.2931   12.4877   14.6490 C.ar    1  UNL1        0.0000
     62 C           1.6650   11.7656   15.7799 C.ar    1  UNL1        0.0000
     63 H           1.1198   10.8628   16.0254 H       1  UNL1        0.0000
     64 C          -1.5292   12.6744   14.5650 C.ar    1  UNL1        0.0000
     65 C          -1.3478   13.4948   15.6738 C.ar    1  UNL1        0.0000
     66 H          -0.3599   13.6336   16.0906 H       1  UNL1        0.0000
     67 C          -2.4319   14.1400   16.2413 C.ar    1  UNL1        0.0000
     68 H          -2.2826   14.7830   17.0972 H       1  UNL1        0.0000
     69 C          -3.7011   13.9676   15.7157 C.ar    1  UNL1        0.0000
     70 H          -4.5438   14.4764   16.1609 H       1  UNL1        0.0000
     71 C          -3.8874   13.1395   14.6211 C.ar    1  UNL1        0.0000
     72 H          -4.8763   12.9955   14.2116 H       1  UNL1        0.0000
     73 C          -2.8088   12.4957   14.0462 C.ar    1  UNL1        0.0000
     74 H          -2.9556   11.8448   13.1964 H       1  UNL1        0.0000
@<TRIPOS>BOND
     1    30    27    1
     2    24    23    1
     3    28    27    1
     4    11    10    1
     5    27    29    1
     6    27     3    1
     7    26    23    1
     8    13    12    1
     9    23    25    1
    10    23     3    1
    11    10    12   ar
    12    10     9   ar
    13    12     5   ar
    14     3     9    1
    15     3    15    1
    16     9     8   ar
    17    45    44    1
    18    22    21    1
    19    43    42    1
    20     5     6    1
    21     5     7   ar
    22    44    42   ar
    23    44    46   ar
    24    42    51   ar
    25    15    21   ar
    26    15    14   ar
    27    21    19   ar
    28     8     7   ar
    29     8     4    1
    30    47    46    1
    31    46    48   ar
    32     7     1    1
    33    51    52    1
    34    51    49   ar
    35    14     4    1
    36    14    16   ar
    37    48    49   ar
    38    48     1    1
    39    19    20    1
    40    19    17   ar
    41    49    50    1
    42    39    38    1
    43     1    37    1
    44    38    37   ar
    45    38    40   ar
    46    16    17   ar
    47    16     2    1
    48    17    18    1
    49    41    40    1
    50    37    35   ar
    51    40    31   ar
    52    74    73    1
    53    60    59    1
    54    35    36    1
    55    35    33   ar
    56    31    32    1
    57    31    33   ar
    58     2    64    1
    59     2    61    1
    60    73    64   ar
    61    73    71   ar
    62    33    34    1
    63    72    71    1
    64    59    61   ar
    65    59    57   ar
    66    64    65   ar
    67    71    69   ar
    68    61    62   ar
    69    58    57    1
    70    57    55   ar
    71    65    66    1
    72    65    67   ar
    73    69    70    1
    74    69    67   ar
    75    62    63    1
    76    62    53   ar
    77    55    53   ar
    78    55    56    1
    79    67    68    1
    80    53    54    1
