@<TRIPOS>MOLECULE
1,2,3
 70 72 0 0 0
SMALL
GASTEIGER

@<TRIPOS>ATOM
      1 P           4.0174    6.4714    5.8529 P.3     1  UNL1       -0.0656
      2 P           5.9279    8.0644    2.0621 P.3     1  UNL1       -0.0656
      3 O           6.6115    7.6745    4.9431 O.3     1  UNL1       -0.4542
      4 C           6.7074    7.2641    6.2360 C.ar    1  UNL1        0.1400
      5 C           5.5509    6.7398    6.8330 C.ar    1  UNL1        0.0194
      6 C           5.5996    6.3836    8.1751 C.ar    1  UNL1       -0.0506
      7 H           4.7250    5.9742    8.6535 H       1  UNL1        0.0625
      8 C           6.7574    6.5339    8.9112 C.ar    1  UNL1       -0.0607
      9 H           6.7767    6.2635    9.9562 H       1  UNL1        0.0618
     10 C           7.8974    7.0128    8.2969 C.ar    1  UNL1       -0.0542
     11 H           8.8035    7.1074    8.8748 H       1  UNL1        0.0622
     12 C           7.8969    7.3735    6.9570 C.ar    1  UNL1        0.0056
     13 C           9.1774    7.8672    6.3145 C.3     1  UNL1        0.0220
     14 C           9.6096    9.1750    7.0006 C.3     1  UNL1       -0.0515
     15 H          10.5312    9.5515    6.5646 H       1  UNL1        0.0241
     16 H           9.7732    9.0164    8.0632 H       1  UNL1        0.0241
     17 H           8.8380    9.9342    6.8814 H       1  UNL1        0.0241
     18 C          10.2605    6.7865    6.4803 C.3     1  UNL1       -0.0515
     19 H           9.9445    5.8684    5.9883 H       1  UNL1        0.0241
     20 H          10.4385    6.5703    7.5299 H       1  UNL1        0.0241
     21 H          11.1997    7.1068    6.0382 H       1  UNL1        0.0241
     22 C           8.9771    8.1319    4.8368 C.ar    1  UNL1        0.0056
     23 C          10.0511    8.5355    4.0554 C.ar    1  UNL1       -0.0542
     24 H          11.0239    8.6531    4.5070 H       1  UNL1        0.0622
     25 C           9.9005    8.8107    2.7104 C.ar    1  UNL1       -0.0607
     26 H          10.7462    9.1411    2.1264 H       1  UNL1        0.0618
     27 C           8.6615    8.6608    2.1206 C.ar    1  UNL1       -0.0506
     28 H           8.5370    8.8900    1.0740 H       1  UNL1        0.0625
     29 C           7.5681    8.2342    2.8623 C.ar    1  UNL1        0.0194
     30 C           7.7276    7.9975    4.2339 C.ar    1  UNL1        0.1400
     31 C           3.5702    4.7546    6.4561 C.3     1  UNL1       -0.0219
     32 H           3.3754    4.8230    7.5323 H       1  UNL1        0.0346
     33 C           2.3073    4.2696    5.7569 C.3     1  UNL1       -0.0584
     34 H           2.4768    4.2179    4.6860 H       1  UNL1        0.0236
     35 H           1.4681    4.9374    5.9423 H       1  UNL1        0.0236
     36 H           2.0392    3.2763    6.1159 H       1  UNL1        0.0236
     37 C           4.7118    3.7703    6.2295 C.3     1  UNL1       -0.0584
     38 H           4.4102    2.7735    6.5495 H       1  UNL1        0.0236
     39 H           5.6000    4.0557    6.7911 H       1  UNL1        0.0236
     40 H           4.9767    3.7273    5.1768 H       1  UNL1        0.0236
     41 C           2.7868    7.5919    6.7406 C.3     1  UNL1       -0.0219
     42 H           2.0045    7.7356    5.9866 H       1  UNL1        0.0346
     43 C           2.1248    7.0946    8.0217 C.3     1  UNL1       -0.0584
     44 H           2.8441    6.9788    8.8287 H       1  UNL1        0.0236
     45 H           1.5986    6.1556    7.8748 H       1  UNL1        0.0236
     46 H           1.3927    7.8352    8.3430 H       1  UNL1        0.0236
     47 C           3.4534    8.9427    6.9911 C.3     1  UNL1       -0.0584
     48 H           2.7096    9.6838    7.2786 H       1  UNL1        0.0236
     49 H           3.9503    9.2915    6.0877 H       1  UNL1        0.0236
     50 H           4.1913    8.8690    7.7887 H       1  UNL1        0.0236
     51 C           6.3043    7.1356    0.4628 C.3     1  UNL1       -0.0219
     52 H           5.3901    6.5420    0.3325 H       1  UNL1        0.0346
     53 C           6.4974    7.9810   -0.7944 C.3     1  UNL1       -0.0584
     54 H           7.4066    8.5768   -0.7509 H       1  UNL1        0.0236
     55 H           5.6550    8.6432   -0.9738 H       1  UNL1        0.0236
     56 H           6.5859    7.3143   -1.6518 H       1  UNL1        0.0236
     57 C           7.4549    6.1414    0.6157 C.3     1  UNL1       -0.0584
     58 H           7.4533    5.4557   -0.2306 H       1  UNL1        0.0236
     59 H           7.3332    5.5560    1.5230 H       1  UNL1        0.0236
     60 H           8.4226    6.6358    0.6502 H       1  UNL1        0.0236
     61 C           5.7334    9.8745    1.5908 C.3     1  UNL1       -0.0219
     62 H           6.4800   10.1179    0.8280 H       1  UNL1        0.0346
     63 C           4.3359   10.1540    1.0570 C.3     1  UNL1       -0.0584
     64 H           3.6025    9.8883    1.8148 H       1  UNL1        0.0236
     65 H           4.1219    9.5793    0.1612 H       1  UNL1        0.0236
     66 H           4.2301   11.2116    0.8182 H       1  UNL1        0.0236
     67 C           5.9794   10.7422    2.8228 C.3     1  UNL1       -0.0584
     68 H           5.7314   11.7794    2.6022 H       1  UNL1        0.0236
     69 H           7.0179   10.7031    3.1459 H       1  UNL1        0.0236
     70 H           5.3438   10.4082    3.6417 H       1  UNL1        0.0236
@<TRIPOS>BOND
     1    56    53    1
     2    55    53    1
     3    53    54    1
     4    53    51    1
     5    58    57    1
     6    65    63    1
     7    52    51    1
     8    51    57    1
     9    51     2    1
    10    57    60    1
    11    57    59    1
    12    66    63    1
    13    62    61    1
    14    63    61    1
    15    63    64    1
    16    28    27    1
    17    61     2    1
    18    61    67    1
    19     2    29    1
    20    27    25   ar
    21    27    29   ar
    22    26    25    1
    23    68    67    1
    24    25    23   ar
    25    67    69    1
    26    67    70    1
    27    29    30   ar
    28    23    24    1
    29    23    22   ar
    30    30    22   ar
    31    30     3    1
    32    34    33    1
    33    22    13    1
    34     3     4    1
    35    40    37    1
    36    33    35    1
    37    33    36    1
    38    33    31    1
    39     1    31    1
    40     1    41    1
    41     1     5    1
    42    42    41    1
    43    19    18    1
    44    21    18    1
    45    49    47    1
    46    37    31    1
    47    37    38    1
    48    37    39    1
    49     4     5   ar
    50     4    12   ar
    51    13    18    1
    52    13    12    1
    53    13    14    1
    54    31    32    1
    55    18    20    1
    56    15    14    1
    57    41    47    1
    58    41    43    1
    59     5     6   ar
    60    17    14    1
    61    12    10   ar
    62    47    48    1
    63    47    50    1
    64    14    16    1
    65    45    43    1
    66    43    46    1
    67    43    44    1
    68     6     7    1
    69     6     8   ar
    70    10    11    1
    71    10     8   ar
    72     8     9    1
