@<TRIPOS>MOLECULE
1,2,3
 70 72 0 0 0
SMALL
GASTEIGER

@<TRIPOS>ATOM
      1 P          -3.1329   16.9295    7.4783 P.3     1  UNL1       -0.0656
      2 P          -1.8733   14.8005   11.2201 P.3     1  UNL1       -0.0656
      3 O          -2.4298   14.1786    8.3631 O.3     1  UNL1       -0.4542
      4 C          -3.0015   14.1482    7.1245 C.ar    1  UNL1        0.1400
      5 C          -3.4503   15.3589    6.5811 C.ar    1  UNL1        0.0194
      6 C          -4.1015   15.3320    5.3533 C.ar    1  UNL1       -0.0506
      7 H          -4.4732   16.2486    4.9239 H       1  UNL1        0.0625
      8 C          -4.2985   14.1410    4.6840 C.ar    1  UNL1       -0.0607
      9 H          -4.8212   14.1307    3.7395 H       1  UNL1        0.0618
     10 C          -3.8017   12.9613    5.2090 C.ar    1  UNL1       -0.0542
     11 H          -3.9364   12.0487    4.6527 H       1  UNL1        0.0622
     12 C          -3.1329   12.9468    6.4227 C.ar    1  UNL1        0.0056
     13 C          -2.4344   11.7200    6.9740 C.3     1  UNL1        0.0220
     14 C          -0.9470   11.8264    6.5705 C.3     1  UNL1       -0.0515
     15 H          -0.5037   12.7443    6.9524 H       1  UNL1        0.0241
     16 H          -0.8526   11.8261    5.4863 H       1  UNL1        0.0241
     17 H          -0.3889   10.9837    6.9736 H       1  UNL1        0.0241
     18 C          -3.0032   10.4162    6.4143 C.3     1  UNL1       -0.0515
     19 H          -2.4466    9.5655    6.7977 H       1  UNL1        0.0241
     20 H          -2.9055   10.3938    5.3325 H       1  UNL1        0.0241
     21 H          -4.0523   10.3040    6.6794 H       1  UNL1        0.0241
     22 C          -2.4882   11.7790    8.4877 C.ar    1  UNL1        0.0056
     23 C          -2.3755   13.0296    9.1003 C.ar    1  UNL1        0.1400
     24 C          -2.2032   13.1486   10.4853 C.ar    1  UNL1        0.0194
     25 C          -2.2347   11.9918   11.2551 C.ar    1  UNL1       -0.0506
     26 H          -2.1246   12.0569   12.3256 H       1  UNL1        0.0625
     27 C          -2.4266   10.7568   10.6685 C.ar    1  UNL1       -0.0607
     28 H          -2.4695    9.8681   11.2798 H       1  UNL1        0.0618
     29 C          -2.5311   10.6518    9.2931 C.ar    1  UNL1       -0.0542
     30 H          -2.6391    9.6742    8.8536 H       1  UNL1        0.0622
     31 C          -1.9355   17.8087    6.3253 C.3     1  UNL1       -0.0219
     32 H          -1.5148   18.5954    6.9659 H       1  UNL1        0.0346
     33 C          -2.4911   18.4604    5.0639 C.3     1  UNL1       -0.0584
     34 H          -1.6735   18.9571    4.5423 H       1  UNL1        0.0236
     35 H          -3.2404   19.2140    5.2910 H       1  UNL1        0.0236
     36 H          -2.9139   17.7227    4.3854 H       1  UNL1        0.0236
     37 C          -0.8118   16.8389    5.9702 C.3     1  UNL1       -0.0584
     38 H          -1.1619   16.0737    5.2769 H       1  UNL1        0.0236
     39 H          -0.4403   16.3533    6.8705 H       1  UNL1        0.0236
     40 H           0.0162   17.3721    5.5066 H       1  UNL1        0.0236
     41 C          -4.7471   17.8295    7.2058 C.3     1  UNL1       -0.0219
     42 H          -4.8815   17.9890    6.1310 H       1  UNL1        0.0346
     43 C          -5.9158   17.0077    7.7338 C.3     1  UNL1       -0.0584
     44 H          -5.7487   16.7529    8.7776 H       1  UNL1        0.0236
     45 H          -6.0376   16.0837    7.1702 H       1  UNL1        0.0236
     46 H          -6.8395   17.5799    7.6631 H       1  UNL1        0.0236
     47 C          -4.6740   19.1795    7.9092 C.3     1  UNL1       -0.0584
     48 H          -5.5712   19.7635    7.7068 H       1  UNL1        0.0236
     49 H          -3.8064   19.7500    7.5812 H       1  UNL1        0.0236
     50 H          -4.5920   19.0320    8.9837 H       1  UNL1        0.0236
     51 C          -2.8232   14.6871   12.8230 C.3     1  UNL1       -0.0219
     52 H          -2.4019   13.8643   13.4102 H       1  UNL1        0.0346
     53 C          -4.2953   14.4020   12.5542 C.3     1  UNL1       -0.0584
     54 H          -4.8533   14.4055   13.4892 H       1  UNL1        0.0236
     55 H          -4.4325   13.4345   12.0726 H       1  UNL1        0.0236
     56 H          -4.7081   15.1709   11.9059 H       1  UNL1        0.0236
     57 C          -2.6621   15.9880   13.6013 C.3     1  UNL1       -0.0584
     58 H          -3.1681   16.7986   13.0821 H       1  UNL1        0.0236
     59 H          -1.6150   16.2639   13.7081 H       1  UNL1        0.0236
     60 H          -3.1004   15.8899   14.5939 H       1  UNL1        0.0236
     61 C          -0.0769   14.6292   11.7404 C.3     1  UNL1       -0.0219
     62 H           0.2297   15.6687   11.9129 H       1  UNL1        0.0346
     63 C           0.7207   14.0850   10.5579 C.3     1  UNL1       -0.0584
     64 H           1.7882   14.1935   10.7407 H       1  UNL1        0.0236
     65 H           0.4754   14.6392    9.6540 H       1  UNL1        0.0236
     66 H           0.5045   13.0287   10.3933 H       1  UNL1        0.0236
     67 C           0.2217   13.8180   12.9962 C.3     1  UNL1       -0.0584
     68 H          -0.0714   12.7766   12.8781 H       1  UNL1        0.0236
     69 H          -0.2655   14.2346   13.8734 H       1  UNL1        0.0236
     70 H           1.2961   13.8395   13.1753 H       1  UNL1        0.0236
@<TRIPOS>BOND
     1     9     8    1
     2    36    33    1
     3    34    33    1
     4    11    10    1
     5     8    10   ar
     6     8     6   ar
     7     7     6    1
     8    33    35    1
     9    33    31    1
    10    10    12   ar
    11    38    37    1
    12    20    18    1
    13     6     5   ar
    14    16    14    1
    15    40    37    1
    16    37    31    1
    17    37    39    1
    18    42    41    1
    19    31    32    1
    20    31     1    1
    21    18    21    1
    22    18    19    1
    23    18    13    1
    24    12    13    1
    25    12     4   ar
    26    14    15    1
    27    14    17    1
    28    14    13    1
    29     5     4   ar
    30     5     1    1
    31    13    22    1
    32     4     3    1
    33    45    43    1
    34    41     1    1
    35    41    43    1
    36    41    47    1
    37    49    47    1
    38    46    43    1
    39    48    47    1
    40    43    44    1
    41    47    50    1
    42     3    23    1
    43    22    23   ar
    44    22    29   ar
    45    30    29    1
    46    23    24   ar
    47    29    27   ar
    48    65    63    1
    49    66    63    1
    50    24     2    1
    51    24    25   ar
    52    63    64    1
    53    63    61    1
    54    27    25   ar
    55    27    28    1
    56     2    61    1
    57     2    51    1
    58    25    26    1
    59    61    62    1
    60    61    67    1
    61    56    53    1
    62    55    53    1
    63    53    51    1
    64    53    54    1
    65    51    52    1
    66    51    57    1
    67    68    67    1
    68    67    70    1
    69    67    69    1
    70    58    57    1
    71    57    59    1
    72    57    60    1
