@<TRIPOS>MOLECULE
1,4
 56 58 0 0 0
SMALL
GASTEIGER

@<TRIPOS>ATOM
      1 N           5.3409   -0.6744   11.8974 N.pl3   1  UNL1       -0.1161
      2 N           4.9042   -0.1803   13.1399 N.pl3   1  UNL1       -0.1995
      3 N           5.0833    1.4308   10.9519 N.2     1  UNL1       -0.2223
      4 S           5.3013   -0.7924    9.3245 S.3     1  UNL1       -0.0107
      5 C           5.8723    0.2067   14.0711 C.ar    1  UNL1        0.0551
      6 C           7.1197    0.6671   13.6526 C.ar    1  UNL1       -0.0387
      7 C           8.1007    0.9667   14.5774 C.ar    1  UNL1       -0.0599
      8 C           7.8598    0.8135   15.9329 C.ar    1  UNL1       -0.0616
      9 C           6.6235    0.3535   16.3576 C.ar    1  UNL1       -0.0599
     10 C           5.6381    0.0424   15.4413 C.ar    1  UNL1       -0.0387
     11 C           3.5609    0.1781   13.2566 C.ar    1  UNL1        0.0551
     12 C           2.6092   -0.4463   12.4429 C.ar    1  UNL1       -0.0387
     13 C           1.2669   -0.1540   12.5904 C.ar    1  UNL1       -0.0599
     14 C           0.8451    0.7820   13.5195 C.ar    1  UNL1       -0.0616
     15 C           1.7895    1.4462   14.2855 C.ar    1  UNL1       -0.0599
     16 C           3.1330    1.1539   14.1605 C.ar    1  UNL1       -0.0387
     17 C           5.2386    0.1831   10.8349 C.2     1  UNL1        0.2051
     18 C           4.9937    2.3829    9.9462 C.ar    1  UNL1        0.0734
     19 C           6.1382    2.8592    9.2917 C.ar    1  UNL1       -0.0191
     20 C           6.0033    3.8788    8.3613 C.ar    1  UNL1       -0.0563
     21 C           4.7719    4.4361    8.0817 C.ar    1  UNL1       -0.0611
     22 C           3.6492    3.9765    8.7455 C.ar    1  UNL1       -0.0563
     23 C           3.7426    2.9637    9.6835 C.ar    1  UNL1       -0.0191
     24 C           7.5031    2.2803    9.5744 C.3     1  UNL1       -0.0195
     25 C           8.0220    1.5199    8.3525 C.3     1  UNL1       -0.0586
     26 C           8.4952    3.3592   10.0121 C.3     1  UNL1       -0.0586
     27 C           2.5207    2.4137   10.3770 C.3     1  UNL1       -0.0195
     28 C           1.4609    3.4687   10.6874 C.3     1  UNL1       -0.0586
     29 C           1.9343    1.2969    9.5099 C.3     1  UNL1       -0.0586
     30 H           7.2984    0.8121   12.5996 H       1  UNL1        0.0637
     31 H           9.0577    1.3334   14.2366 H       1  UNL1        0.0618
     32 H           8.6265    1.0527   16.6538 H       1  UNL1        0.0618
     33 H           6.4268    0.2276   17.4125 H       1  UNL1        0.0618
     34 H           4.6813   -0.3288   15.7815 H       1  UNL1        0.0637
     35 H           2.9330   -1.1459   11.6761 H       1  UNL1        0.0637
     36 H           0.5436   -0.6621   11.9687 H       1  UNL1        0.0618
     37 H          -0.2046    1.0072   13.6315 H       1  UNL1        0.0618
     38 H           1.4779    2.2092   14.9835 H       1  UNL1        0.0618
     39 H           3.8569    1.7004   14.7445 H       1  UNL1        0.0637
     40 H           6.8781    4.2413    7.8415 H       1  UNL1        0.0621
     41 H           4.6853    5.2260    7.3495 H       1  UNL1        0.0618
     42 H           2.6880    4.4147    8.5244 H       1  UNL1        0.0621
     43 H           7.4017    1.5724   10.4020 H       1  UNL1        0.0344
     44 H           8.9921    1.0741    8.5636 H       1  UNL1        0.0235
     45 H           8.1247    2.1887    7.5012 H       1  UNL1        0.0235
     46 H           7.3250    0.7277    8.0878 H       1  UNL1        0.0235
     47 H           9.4418    2.9024   10.2970 H       1  UNL1        0.0235
     48 H           8.1028    3.9068   10.8663 H       1  UNL1        0.0235
     49 H           8.6867    4.0658    9.2088 H       1  UNL1        0.0235
     50 H           2.8512    1.9801   11.3259 H       1  UNL1        0.0344
     51 H           0.7095    3.0438   11.3504 H       1  UNL1        0.0235
     52 H           1.9101    4.3275   11.1809 H       1  UNL1        0.0235
     53 H           0.9602    3.8065    9.7831 H       1  UNL1        0.0235
     54 H           1.0627    0.8569    9.9889 H       1  UNL1        0.0235
     55 H           2.6814    0.5209    9.3527 H       1  UNL1        0.0235
     56 H           1.6402    1.6910    8.5389 H       1  UNL1        0.0235
@<TRIPOS>BOND
     1    41    21    1
     2    45    25    1
     3    40    20    1
     4    21    20   ar
     5    21    22   ar
     6    46    25    1
     7    25    44    1
     8    25    24    1
     9    20    19   ar
    10    42    22    1
    11    56    29    1
    12    22    23   ar
    13    49    26    1
    14    19    24    1
    15    19    18   ar
    16     4    17    1
    17    55    29    1
    18    29    54    1
    19    29    27    1
    20    24    26    1
    21    24    43    1
    22    23    18   ar
    23    23    27    1
    24    53    28    1
    25    18     3    1
    26    26    47    1
    27    26    48    1
    28    27    28    1
    29    27    50    1
    30    28    52    1
    31    28    51    1
    32    17     3    2
    33    17     1    1
    34    35    12    1
    35     1     2    1
    36    36    13    1
    37    12    13   ar
    38    12    11   ar
    39    13    14   ar
    40    30     6    1
    41     2    11    1
    42     2     5    1
    43    11    16   ar
    44    14    37    1
    45    14    15   ar
    46     6     5   ar
    47     6     7   ar
    48     5    10   ar
    49    16    15   ar
    50    16    39    1
    51    31     7    1
    52    15    38    1
    53     7     8   ar
    54    10    34    1
    55    10     9   ar
    56     8     9   ar
    57     8    32    1
    58     9    33    1
