@<TRIPOS>MOLECULE
1,2
 23 23 0 0 0
SMALL
GASTEIGER

@<TRIPOS>ATOM
      1 S           2.1306    0.5294    1.8400 S.3     1  UNL1        0.0000
      2 N           3.0954    2.4307    3.2197 N.pl3   1  UNL1        0.0000
      3 C           2.7205    2.1404    1.9573 C.3     1  UNL1        0.0000
      4 C           2.8226    3.0611    0.9059 C.2     1  UNL1        0.0000
      5 C           3.3610    4.2920    1.2273 C.2     1  UNL1        0.0000
      6 H           3.4668    5.0417    0.4583 H       1  UNL1        0.0000
      7 C           3.7804    4.5796    2.5268 C.2     1  UNL1        0.0000
      8 H           4.2169    5.5343    2.7721 H       1  UNL1        0.0000
      9 C           3.6291    3.6136    3.4981 C.2     1  UNL1        0.0000
     10 H           3.9466    3.7725    4.5190 H       1  UNL1        0.0000
     11 C           3.3095    1.1179   -1.4600 C.3     1  UNL1        0.0000
     12 H           4.3635    1.3784   -1.4953 H       1  UNL1        0.0000
     13 H           3.0110    0.8135   -2.4583 H       1  UNL1        0.0000
     14 H           3.2032    0.2602   -0.8041 H       1  UNL1        0.0000
     15 C           0.3937    2.1575   -0.7805 C.3     1  UNL1        0.0000
     16 H          -0.1947    2.9968   -0.4199 H       1  UNL1        0.0000
     17 H           0.2128    1.3145   -0.1221 H       1  UNL1        0.0000
     18 H           0.0210    1.8947   -1.7655 H       1  UNL1        0.0000
     19 C           2.5147    4.0897   -1.9731 C.3     1  UNL1        0.0000
     20 H           3.5598    4.3770   -2.0295 H       1  UNL1        0.0000
     21 H           1.9471    4.9529   -1.6395 H       1  UNL1        0.0000
     22 H           2.1891    3.8602   -2.9820 H       1  UNL1        0.0000
     23 SI          2.2527    2.5742   -0.8438 Si      1  UNL1        0.0000
@<TRIPOS>BOND
     1    22    19    1
     2    13    11    1
     3    20    19    1
     4    19    21    1
     5    19    23    1
     6    18    15    1
     7    12    11    1
     8    11    23    1
     9    11    14    1
    10    23    15    1
    11    23     4    1
    12    15    16    1
    13    15    17    1
    14     6     5    1
    15     4     5    2
    16     4     3    1
    17     5     7    1
    18     1     3    1
    19     3     2    1
    20     7     8    1
    21     7     9    2
    22     2     9    1
    23     9    10    1
