@<TRIPOS>MOLECULE
2,3
 23 23 0 0 0
SMALL
GASTEIGER

@<TRIPOS>ATOM
      1 SI          8.3546    4.4035    4.7041 Si      1  UNL1        0.0000
      2 S           7.1634    2.3572    2.3454 S.3     1  UNL1        0.0000
      3 N           8.7032    0.5554    3.2330 N.pl3   1  UNL1        0.0000
      4 C           8.3488    1.8300    3.4702 C.3     1  UNL1        0.0000
      5 C           8.9112    2.6048    4.4901 C.2     1  UNL1        0.0000
      6 C           9.8747    1.9810    5.2636 C.2     1  UNL1        0.0000
      7 H          10.3504    2.5280    6.0636 H       1  UNL1        0.0000
      8 C          10.2393    0.6597    5.0216 C.2     1  UNL1        0.0000
      9 H          10.9911    0.1695    5.6195 H       1  UNL1        0.0000
     10 C           9.6251   -0.0226    3.9910 C.2     1  UNL1        0.0000
     11 H           9.8730   -1.0518    3.7564 H       1  UNL1        0.0000
     12 C           6.4913    4.4522    5.1063 C.3     1  UNL1        0.0000
     13 H           6.2571    3.8528    5.9821 H       1  UNL1        0.0000
     14 H           5.9106    4.0670    4.2748 H       1  UNL1        0.0000
     15 H           6.1594    5.4673    5.3017 H       1  UNL1        0.0000
     16 C           8.7598    5.3854    3.1200 C.3     1  UNL1        0.0000
     17 H           8.4689    6.4265    3.2218 H       1  UNL1        0.0000
     18 H           8.2306    4.9746    2.2662 H       1  UNL1        0.0000
     19 H           9.8226    5.3608    2.8944 H       1  UNL1        0.0000
     20 C           9.3257    5.1467    6.1661 C.3     1  UNL1        0.0000
     21 H           9.1389    4.6104    7.0908 H       1  UNL1        0.0000
     22 H           9.0285    6.1778    6.3230 H       1  UNL1        0.0000
     23 H          10.3960    5.1410    5.9867 H       1  UNL1        0.0000
@<TRIPOS>BOND
     1    18    16    1
     2     2     4    1
     3    19    16    1
     4    16    17    1
     5    16     1    1
     6     3     4    1
     7     3    10    1
     8     4     5    1
     9    11    10    1
    10    10     8    2
    11    14    12    1
    12     5     1    1
    13     5     6    2
    14     1    12    1
    15     1    20    1
    16     8     6    1
    17     8     9    1
    18    12    15    1
    19    12    13    1
    20     6     7    1
    21    23    20    1
    22    20    22    1
    23    20    21    1
