@<TRIPOS>MOLECULE
2,3
 23 23 0 0 0
SMALL
GASTEIGER

@<TRIPOS>ATOM
      1 SI          6.5983   -4.4032    4.7058 Si      1  UNL1        0.0000
      2 S           7.7881   -2.3576    2.3455 S.3     1  UNL1        0.0000
      3 N           6.2481   -0.5558    3.2329 N.pl3   1  UNL1        0.0000
      4 C           6.6029   -1.8303    3.4706 C.3     1  UNL1        0.0000
      5 C           6.0409   -2.6048    4.4909 C.2     1  UNL1        0.0000
      6 C           5.0773   -1.9810    5.2642 C.2     1  UNL1        0.0000
      7 H           4.6019   -2.5278    6.0645 H       1  UNL1        0.0000
      8 C           4.7121   -0.6599    5.0216 C.2     1  UNL1        0.0000
      9 H           3.9603   -0.1698    5.6194 H       1  UNL1        0.0000
     10 C           5.3261    0.0221    3.9907 C.2     1  UNL1        0.0000
     11 H           5.0780    1.0512    3.7559 H       1  UNL1        0.0000
     12 C           8.4618   -4.4508    5.1074 C.3     1  UNL1        0.0000
     13 H           8.6960   -3.8506    5.9827 H       1  UNL1        0.0000
     14 H           9.0420   -4.0660    4.2754 H       1  UNL1        0.0000
     15 H           8.7941   -5.4657    5.3036 H       1  UNL1        0.0000
     16 C           6.1930   -5.3861    3.1224 C.3     1  UNL1        0.0000
     17 H           6.4844   -6.4271    3.2247 H       1  UNL1        0.0000
     18 H           6.7218   -4.9756    2.2682 H       1  UNL1        0.0000
     19 H           5.1302   -5.3621    2.8972 H       1  UNL1        0.0000
     20 C           5.6280   -5.1458    6.1685 C.3     1  UNL1        0.0000
     21 H           5.8150   -4.6089    7.0929 H       1  UNL1        0.0000
     22 H           5.9257   -6.1767    6.3260 H       1  UNL1        0.0000
     23 H           4.5576   -5.1406    5.9895 H       1  UNL1        0.0000
@<TRIPOS>BOND
     1    18    16    1
     2     2     4    1
     3    19    16    1
     4    16    17    1
     5    16     1    1
     6     3     4    1
     7     3    10    1
     8     4     5    1
     9    11    10    1
    10    10     8    2
    11    14    12    1
    12     5     1    1
    13     5     6    2
    14     1    12    1
    15     1    20    1
    16     8     6    1
    17     8     9    1
    18    12    15    1
    19    12    13    1
    20     6     7    1
    21    23    20    1
    22    20    22    1
    23    20    21    1
