@<TRIPOS>MOLECULE
1,3
 23 23 0 0 0
SMALL
GASTEIGER

@<TRIPOS>ATOM
      1 S          -0.3010    9.8634    2.3855 S.3     1  UNL1        0.0000
      2 SI          0.9494   11.9075    4.7276 Si      1  UNL1        0.0000
      3 N           1.2377    8.0478    3.2537 N.pl3   1  UNL1        0.0000
      4 C           0.8993    9.3299    3.4942 C.3     1  UNL1        0.0000
      5 C           1.4825   10.1028    4.5032 C.2     1  UNL1        0.0000
      6 C           2.4505    9.4730    5.2672 C.2     1  UNL1        0.0000
      7 H           2.9409   10.0182    6.0595 H       1  UNL1        0.0000
      8 C           2.8000    8.1478    5.0251 C.2     1  UNL1        0.0000
      9 H           3.5545    7.6525    5.6154 H       1  UNL1        0.0000
     10 C           2.1665    7.4685    4.0047 C.2     1  UNL1        0.0000
     11 H           2.4040    6.4372    3.7725 H       1  UNL1        0.0000
     12 C          -0.9063   11.9777    5.1618 C.3     1  UNL1        0.0000
     13 H          -1.5058   11.5945    4.3428 H       1  UNL1        0.0000
     14 H          -1.2239   12.9974    5.3574 H       1  UNL1        0.0000
     15 H          -1.1316   11.3855    6.0447 H       1  UNL1        0.0000
     16 C           1.9523   12.6439    6.1718 C.3     1  UNL1        0.0000
     17 H           1.6724   13.6801    6.3279 H       1  UNL1        0.0000
     18 H           3.0197   12.6217    5.9770 H       1  UNL1        0.0000
     19 H           1.7713   12.1149    7.1020 H       1  UNL1        0.0000
     20 C           1.3348   12.8897    3.1385 C.3     1  UNL1        0.0000
     21 H           0.7948   12.4805    2.2908 H       1  UNL1        0.0000
     22 H           2.3946   12.8655    2.8994 H       1  UNL1        0.0000
     23 H           1.0452   13.9307    3.2452 H       1  UNL1        0.0000
@<TRIPOS>BOND
     1    21    20    1
     2     1     4    1
     3    22    20    1
     4    20    23    1
     5    20     2    1
     6     3     4    1
     7     3    10    1
     8     4     5    1
     9    11    10    1
    10    10     8    2
    11    13    12    1
    12     5     2    1
    13     5     6    2
    14     2    12    1
    15     2    16    1
    16     8     6    1
    17     8     9    1
    18    12    14    1
    19    12    15    1
    20     6     7    1
    21    18    16    1
    22    16    17    1
    23    16    19    1
