@<TRIPOS>MOLECULE
1,3
 23 23 0 0 0
SMALL
GASTEIGER

@<TRIPOS>ATOM
      1 S           0.3009    5.1027    2.3869 S.3     1  UNL1        0.0000
      2 SI         -0.9479    3.0596    4.7309 Si      1  UNL1        0.0000
      3 N          -1.2394    6.9177    3.2537 N.pl3   1  UNL1        0.0000
      4 C          -0.9008    5.6357    3.4944 C.3     1  UNL1        0.0000
      5 C          -1.4827    4.8635    4.5046 C.2     1  UNL1        0.0000
      6 C          -2.4506    5.4934    5.2687 C.2     1  UNL1        0.0000
      7 H          -2.9406    4.9483    6.0614 H       1  UNL1        0.0000
      8 C          -2.8012    6.8181    5.0255 C.2     1  UNL1        0.0000
      9 H          -3.5560    7.3133    5.6155 H       1  UNL1        0.0000
     10 C          -2.1683    7.4971    4.0046 C.2     1  UNL1        0.0000
     11 H          -2.4063    8.5281    3.7718 H       1  UNL1        0.0000
     12 C           0.9084    2.9911    5.1624 C.3     1  UNL1        0.0000
     13 H           1.5066    3.3735    4.3421 H       1  UNL1        0.0000
     14 H           1.2270    1.9720    5.3593 H       1  UNL1        0.0000
     15 H           1.1345    3.5849    6.0441 H       1  UNL1        0.0000
     16 C          -1.9481    2.3244    6.1776 C.3     1  UNL1        0.0000
     17 H          -1.6670    1.2887    6.3351 H       1  UNL1        0.0000
     18 H          -3.0158    2.3453    5.9842 H       1  UNL1        0.0000
     19 H          -1.7662    2.8551    7.1066 H       1  UNL1        0.0000
     20 C          -1.3349    2.0749    3.1437 C.3     1  UNL1        0.0000
     21 H          -0.7964    2.4834    2.2947 H       1  UNL1        0.0000
     22 H          -2.3950    2.0983    2.9061 H       1  UNL1        0.0000
     23 H          -1.0446    1.0342    3.2512 H       1  UNL1        0.0000
@<TRIPOS>BOND
     1    21    20    1
     2     1     4    1
     3    22    20    1
     4    20    23    1
     5    20     2    1
     6     3     4    1
     7     3    10    1
     8     4     5    1
     9    11    10    1
    10    10     8    2
    11    13    12    1
    12     5     2    1
    13     5     6    2
    14     2    12    1
    15     2    16    1
    16     8     6    1
    17     8     9    1
    18    12    14    1
    19    12    15    1
    20     6     7    1
    21    18    16    1
    22    16    17    1
    23    16    19    1
