@<TRIPOS>MOLECULE
1,6
 57 56 0 0 0
SMALL
GASTEIGER

@<TRIPOS>ATOM
      1 S           7.3271    4.6664   10.7754 S.3     1  UNL1        0.0000
      2 P           7.7995    6.4785   11.4778 P.3     1  UNL1        0.0000
      3 SI         10.0730    7.6822   10.1129 Si      1  UNL1        0.0000
      4 SI         10.3438    5.3787   12.1966 Si      1  UNL1        0.0000
      5 O           7.3516    7.6280   10.4557 O.3     1  UNL1        0.0000
      6 N           7.1421    6.5332   12.9486 N.3     1  UNL1        0.0000
      7 N           9.4447    6.7159   11.4581 N.3     1  UNL1        0.0000
      8 C           7.2745    7.6527   13.8888 C.3     1  UNL1        0.0000
      9 C           5.8982    7.9316   14.5059 C.3     1  UNL1        0.0000
     10 H           5.4738    6.9978   14.8721 H       1  UNL1        0.0000
     11 H           5.2178    8.3301   13.7583 H       1  UNL1        0.0000
     12 H           5.9865    8.6468   15.3222 H       1  UNL1        0.0000
     13 C           7.7963    8.9215   13.2133 C.3     1  UNL1        0.0000
     14 H           7.9061    9.7133   13.9527 H       1  UNL1        0.0000
     15 H           7.1051    9.2592   12.4460 H       1  UNL1        0.0000
     16 H           8.7618    8.7267   12.7539 H       1  UNL1        0.0000
     17 C           8.2592    7.2684   15.0046 C.3     1  UNL1        0.0000
     18 H           7.9167    6.3638   15.5043 H       1  UNL1        0.0000
     19 H           8.3214    8.0675   15.7414 H       1  UNL1        0.0000
     20 H           9.2515    7.0993   14.5887 H       1  UNL1        0.0000
     21 C           9.6837    9.5439   10.2870 C.3     1  UNL1        0.0000
     22 H          10.0092   10.0520    9.3841 H       1  UNL1        0.0000
     23 H          10.2338    9.9833   11.1149 H       1  UNL1        0.0000
     24 H           8.6345    9.7605   10.4304 H       1  UNL1        0.0000
     25 C          11.9790    7.6709   10.1773 C.3     1  UNL1        0.0000
     26 H          12.3647    8.1445   11.0717 H       1  UNL1        0.0000
     27 H          12.3391    8.2446    9.3306 H       1  UNL1        0.0000
     28 H          12.4183    6.6845   10.1125 H       1  UNL1        0.0000
     29 C           9.5306    6.8774    8.4707 C.3     1  UNL1        0.0000
     30 H          10.3851    6.5332    7.8949 H       1  UNL1        0.0000
     31 H           8.9783    7.5711    7.8443 H       1  UNL1        0.0000
     32 H           8.8916    6.0202    8.6674 H       1  UNL1        0.0000
     33 C          10.9379    4.2092   10.8060 C.3     1  UNL1        0.0000
     34 H          10.0877    3.7439   10.3120 H       1  UNL1        0.0000
     35 H          11.5605    3.4184   11.2138 H       1  UNL1        0.0000
     36 H          11.5132    4.7223   10.0437 H       1  UNL1        0.0000
     37 C           9.4439    4.2252   13.4205 C.3     1  UNL1        0.0000
     38 H           8.8080    4.7517   14.1259 H       1  UNL1        0.0000
     39 H          10.1765    3.6690   14.0019 H       1  UNL1        0.0000
     40 H           8.8367    3.4915   12.8911 H       1  UNL1        0.0000
     41 C          11.7540    6.2148   13.1781 C.3     1  UNL1        0.0000
     42 H          12.6943    6.0759   12.6602 H       1  UNL1        0.0000
     43 H          11.8628    5.7660   14.1597 H       1  UNL1        0.0000
     44 H          11.6062    7.2809   13.3116 H       1  UNL1        0.0000
     45 C           6.0637    7.8594    9.8300 C.3     1  UNL1        0.0000
     46 C           6.1967    9.2358    9.1706 C.3     1  UNL1        0.0000
     47 H           6.3681   10.0056    9.9194 H       1  UNL1        0.0000
     48 H           5.2814    9.4730    8.6358 H       1  UNL1        0.0000
     49 H           7.0283    9.2381    8.4710 H       1  UNL1        0.0000
     50 C           4.9342    7.8697   10.8528 C.3     1  UNL1        0.0000
     51 H           4.8956    6.9280   11.4108 H       1  UNL1        0.0000
     52 H           3.9852    8.0000   10.3388 H       1  UNL1        0.0000
     53 H           5.0600    8.6917   11.5539 H       1  UNL1        0.0000
     54 C           5.7872    6.8019    8.7640 C.3     1  UNL1        0.0000
     55 H           6.6366    6.7047    8.0938 H       1  UNL1        0.0000
     56 H           4.9130    7.0919    8.1870 H       1  UNL1        0.0000
     57 H           5.5931    5.8387    9.2292 H       1  UNL1        0.0000
@<TRIPOS>BOND
     1    31    29    1
     2    30    29    1
     3    55    54    1
     4    56    54    1
     5    29    32    1
     6    29     3    1
     7    49    46    1
     8    48    46    1
     9    54    57    1
    10    54    45    1
    11    46    45    1
    12    46    47    1
    13    27    25    1
    14    22    21    1
    15    45     5    1
    16    45    50    1
    17    36    33    1
    18    28    25    1
    19     3    25    1
    20     3    21    1
    21     3     7    1
    22    25    26    1
    23    21    24    1
    24    21    23    1
    25    34    33    1
    26    52    50    1
    27     5     2    1
    28     1     2    1
    29    33    35    1
    30    33     4    1
    31    50    51    1
    32    50    53    1
    33     7     2    1
    34     7     4    1
    35     2     6    1
    36     4    41    1
    37     4    37    1
    38    15    13    1
    39    42    41    1
    40    16    13    1
    41    40    37    1
    42     6     8    1
    43    41    44    1
    44    41    43    1
    45    13     8    1
    46    13    14    1
    47    37    39    1
    48    37    38    1
    49    11     9    1
    50     8     9    1
    51     8    17    1
    52     9    10    1
    53     9    12    1
    54    20    17    1
    55    17    18    1
    56    17    19    1
