@<TRIPOS>MOLECULE
1,3
 23 23 0 0 0
SMALL
GASTEIGER

@<TRIPOS>ATOM
      1 S           8.1699   11.7658    8.4335 S.2     1  UNL1        0.0000
      2 SI          8.3422   15.0506    8.9065 Si      1  UNL1        0.0000
      3 N           7.9771   12.1677    5.9534 N.ar    1  UNL1        0.0000
      4 C           8.1023   12.8421    7.1069 C.ar    1  UNL1        0.0000
      5 C           8.1664   14.2380    7.1953 C.ar    1  UNL1        0.0000
      6 C           8.1035   14.9260    5.9999 C.ar    1  UNL1        0.0000
      7 C           7.9785   14.2353    4.7950 C.ar    1  UNL1        0.0000
      8 C           7.9199   12.8590    4.8125 C.ar    1  UNL1        0.0000
      9 C           6.8227   14.5906    9.9599 C.3     1  UNL1        0.0000
     10 C           8.3654   16.9387    8.6309 C.3     1  UNL1        0.0000
     11 C           9.9859   14.5003    9.6925 C.3     1  UNL1        0.0000
     12 H           8.1548   16.0039    5.9986 H       1  UNL1        0.0000
     13 H           7.9303   14.7612    3.8550 H       1  UNL1        0.0000
     14 H           7.8224   12.2873    3.8984 H       1  UNL1        0.0000
     15 H           5.8979   14.9149    9.4907 H       1  UNL1        0.0000
     16 H           6.8750   15.0544   10.9399 H       1  UNL1        0.0000
     17 H           6.7635   13.5165   10.1017 H       1  UNL1        0.0000
     18 H           7.4574   17.2911    8.1520 H       1  UNL1        0.0000
     19 H           9.2084   17.2523    8.0235 H       1  UNL1        0.0000
     20 H           8.4468   17.4498    9.5840 H       1  UNL1        0.0000
     21 H          10.0026   13.4243    9.8321 H       1  UNL1        0.0000
     22 H          10.1311   14.9638   10.6635 H       1  UNL1        0.0000
     23 H          10.8348   14.7670    9.0689 H       1  UNL1        0.0000
@<TRIPOS>BOND
     1    13     7    1
     2    14     8    1
     3     7     8   ar
     4     7     6   ar
     5     8     3   ar
     6     3     4   ar
     7    12     6    1
     8     6     5   ar
     9     4     5   ar
    10     4     1    2
    11     5     2    1
    12    19    10    1
    13    18    10    1
    14    10     2    1
    15    10    20    1
    16     2    11    1
    17     2     9    1
    18    23    11    1
    19    15     9    1
    20    11    21    1
    21    11    22    1
    22     9    17    1
    23     9    16    1
