@<TRIPOS>MOLECULE
1,3
 23 23 0 0 0
SMALL
GASTEIGER

@<TRIPOS>ATOM
      1 S           8.4979    8.6849    8.6578 S.3     1  UNL1        0.0000
      2 SI          9.3032    5.6022    9.5999 Si      1  UNL1        0.0000
      3 N           8.4231    7.8979    6.2653 N.pl3   1  UNL1        0.0000
      4 C           8.6644    7.4361    7.5020 C.3     1  UNL1        0.0000
      5 C           9.0038    6.1088    7.7908 C.2     1  UNL1        0.0000
      6 C           9.0979    5.2568    6.7084 C.2     1  UNL1        0.0000
      7 C           8.8562    5.7272    5.4181 C.2     1  UNL1        0.0000
      8 C           8.5225    7.0516    5.2373 C.2     1  UNL1        0.0000
      9 C           9.7011    3.7360    9.6002 C.3     1  UNL1        0.0000
     10 C           7.7013    5.9031   10.5867 C.3     1  UNL1        0.0000
     11 C          10.7912    6.5702   10.2865 C.3     1  UNL1        0.0000
     12 H           9.3625    4.2220    6.8624 H       1  UNL1        0.0000
     13 H           8.9289    5.0722    4.5648 H       1  UNL1        0.0000
     14 H           8.3260    7.4539    4.2516 H       1  UNL1        0.0000
     15 H           8.8860    3.1461    9.1931 H       1  UNL1        0.0000
     16 H           9.8708    3.3948   10.6156 H       1  UNL1        0.0000
     17 H          10.5964    3.5095    9.0300 H       1  UNL1        0.0000
     18 H           7.4463    6.9576   10.5933 H       1  UNL1        0.0000
     19 H           7.8126    5.5798   11.6169 H       1  UNL1        0.0000
     20 H           6.8615    5.3617   10.1600 H       1  UNL1        0.0000
     21 H          10.6047    7.6385   10.2485 H       1  UNL1        0.0000
     22 H          11.6945    6.3703    9.7166 H       1  UNL1        0.0000
     23 H          10.9879    6.3040   11.3205 H       1  UNL1        0.0000
@<TRIPOS>BOND
     1    14     8    1
     2    13     7    1
     3     8     7    2
     4     8     3    1
     5     7     6    1
     6     3     4    1
     7     6    12    1
     8     6     5    2
     9     4     5    1
    10     4     1    1
    11     5     2    1
    12    17     9    1
    13    15     9    1
    14     2     9    1
    15     2    11    1
    16     2    10    1
    17     9    16    1
    18    22    11    1
    19    20    10    1
    20    21    11    1
    21    11    23    1
    22    10    18    1
    23    10    19    1
