@<TRIPOS>MOLECULE
1,3
 23 23 0 0 0
SMALL
GASTEIGER

@<TRIPOS>ATOM
      1 S           1.2018    2.2582    5.0440 S.3     1  UNL1        0.0000
      2 SI          3.2513   -0.3301    5.3535 Si      1  UNL1        0.0000
      3 N           0.3073    1.2245    2.8835 N.pl3   1  UNL1        0.0000
      4 C           1.2068    1.0125    3.8621 C.3     1  UNL1        0.0000
      5 C           2.0310   -0.1233    3.9131 C.2     1  UNL1        0.0000
      6 C           1.8738   -1.0405    2.8922 C.2     1  UNL1        0.0000
      7 C           0.9319   -0.8330    1.8840 C.2     1  UNL1        0.0000
      8 C           0.1668    0.3121    1.9231 C.2     1  UNL1        0.0000
      9 C           4.1853   -1.9718    5.0820 C.3     1  UNL1        0.0000
     10 C           2.2709   -0.4459    6.9853 C.3     1  UNL1        0.0000
     11 C           4.4971    1.1093    5.3496 C.3     1  UNL1        0.0000
     12 H           2.4806   -1.9330    2.8790 H       1  UNL1        0.0000
     13 H           0.7974   -1.5499    1.0898 H       1  UNL1        0.0000
     14 H          -0.5884    0.5173    1.1698 H       1  UNL1        0.0000
     15 H           4.9041   -2.1231    5.8800 H       1  UNL1        0.0000
     16 H           4.7355   -1.9759    4.1466 H       1  UNL1        0.0000
     17 H           3.5177   -2.8276    5.0817 H       1  UNL1        0.0000
     18 H           1.5224   -1.2332    6.9477 H       1  UNL1        0.0000
     19 H           1.7642    0.4904    7.1941 H       1  UNL1        0.0000
     20 H           2.9308   -0.6592    7.8205 H       1  UNL1        0.0000
     21 H           5.0609    1.1453    4.4215 H       1  UNL1        0.0000
     22 H           5.2078    1.0111    6.1643 H       1  UNL1        0.0000
     23 H           3.9853    2.0588    5.4652 H       1  UNL1        0.0000
@<TRIPOS>BOND
     1    13     7    1
     2    14     8    1
     3     7     8    2
     4     7     6    1
     5     8     3    1
     6    12     6    1
     7     3     4    1
     8     6     5    2
     9     4     5    1
    10     4     1    1
    11     5     2    1
    12    16     9    1
    13    21    11    1
    14    17     9    1
    15     9     2    1
    16     9    15    1
    17    11     2    1
    18    11    23    1
    19    11    22    1
    20     2    10    1
    21    18    10    1
    22    10    19    1
    23    10    20    1
