@<TRIPOS>MOLECULE
1,2
 23 23 0 0 0
SMALL
GASTEIGER

@<TRIPOS>ATOM
      1 S          -2.7574    2.2605    2.1155 S.3     1  UNL1        0.0000
      2 N          -1.8650    1.2256    4.2762 N.pl3   1  UNL1        0.0000
      3 C          -2.7623    1.0131    3.2957 C.3     1  UNL1        0.0000
      4 C          -1.7254    0.3129    5.2365 C.2     1  UNL1        0.0000
      5 C          -3.5841   -0.1242    3.2417 C.2     1  UNL1        0.0000
      6 C          -2.4889   -0.8333    5.2731 C.2     1  UNL1        0.0000
      7 H          -0.9723    0.5191    5.9917 H       1  UNL1        0.0000
      8 SI         -4.7999   -0.3322    1.7976 Si      1  UNL1        0.0000
      9 C          -3.4277   -1.0419    4.2622 C.2     1  UNL1        0.0000
     10 H          -2.3555   -1.5504    6.0674 H       1  UNL1        0.0000
     11 C          -5.7302   -1.9768    2.0644 C.3     1  UNL1        0.0000
     12 C          -3.8150   -0.4436    0.1682 C.3     1  UNL1        0.0000
     13 C          -6.0491    1.1042    1.7998 C.3     1  UNL1        0.0000
     14 H          -4.0329   -1.9355    4.2732 H       1  UNL1        0.0000
     15 H          -6.4461   -2.1293    1.2640 H       1  UNL1        0.0000
     16 H          -6.2835   -1.9834    2.9981 H       1  UNL1        0.0000
     17 H          -5.0603   -2.8308    2.0660 H       1  UNL1        0.0000
     18 H          -3.0636   -1.2281    0.2070 H       1  UNL1        0.0000
     19 H          -3.3115    0.4948   -0.0391 H       1  UNL1        0.0000
     20 H          -4.4722   -0.6590   -0.6686 H       1  UNL1        0.0000
     21 H          -6.6165    1.1370    2.7258 H       1  UNL1        0.0000
     22 H          -6.7564    1.0061    0.9821 H       1  UNL1        0.0000
     23 H          -5.5389    2.0551    1.6880 H       1  UNL1        0.0000
@<TRIPOS>BOND
     1    20    12    1
     2    19    12    1
     3    12    18    1
     4    12     8    1
     5    22    13    1
     6    15    11    1
     7    23    13    1
     8     8    13    1
     9     8    11    1
    10     8     5    1
    11    13    21    1
    12    11    17    1
    13    11    16    1
    14     1     3    1
    15     5     3    1
    16     5     9    2
    17     3     2    1
    18     9    14    1
    19     9     6    1
    20     2     4    1
    21     4     6    2
    22     4     7    1
    23     6    10    1
