@<TRIPOS>MOLECULE
1,3
 23 23 0 0 0
SMALL
GASTEIGER

@<TRIPOS>ATOM
      1 S           2.0778    3.5507    0.9537 S.3     1  UNL1        0.0000
      2 SI          0.1707    3.1536   -1.7658 Si      1  UNL1        0.0000
      3 N           3.4688    5.2584   -0.3311 N.pl3   1  UNL1        0.0000
      4 C           2.3963    4.4546   -0.4703 C.3     1  UNL1        0.0000
      5 C           1.6086    4.3993   -1.6273 C.2     1  UNL1        0.0000
      6 C           1.9697    5.2665   -2.6392 C.2     1  UNL1        0.0000
      7 H           1.4010    5.2819   -3.5556 H       1  UNL1        0.0000
      8 C           3.0520    6.1336   -2.4895 C.2     1  UNL1        0.0000
      9 H           3.3213    6.8256   -3.2708 H       1  UNL1        0.0000
     10 C           3.7788    6.0910   -1.3226 C.2     1  UNL1        0.0000
     11 H           4.6316    6.7370   -1.1553 H       1  UNL1        0.0000
     12 C          -0.6849    3.4758   -3.4321 C.3     1  UNL1        0.0000
     13 H          -1.0673    4.4887   -3.5104 H       1  UNL1        0.0000
     14 H          -1.5269    2.8024   -3.5473 H       1  UNL1        0.0000
     15 H          -0.0179    3.3038   -4.2707 H       1  UNL1        0.0000
     16 C          -1.1180    3.3142   -0.3689 C.3     1  UNL1        0.0000
     17 H          -1.6764    4.2436   -0.4203 H       1  UNL1        0.0000
     18 H          -0.6639    3.2470    0.6142 H       1  UNL1        0.0000
     19 H          -1.8364    2.5035   -0.4491 H       1  UNL1        0.0000
     20 C           0.9265    1.4054   -1.7393 C.3     1  UNL1        0.0000
     21 H           1.6030    1.2548   -2.5754 H       1  UNL1        0.0000
     22 H           0.1480    0.6517   -1.8024 H       1  UNL1        0.0000
     23 H           1.4831    1.2267   -0.8244 H       1  UNL1        0.0000
@<TRIPOS>BOND
     1    15    12    1
     2     7     6    1
     3    14    12    1
     4    13    12    1
     5    12     2    1
     6     9     8    1
     7     6     8    1
     8     6     5    2
     9    21    20    1
    10     8    10    2
    11    22    20    1
    12     2    20    1
    13     2     5    1
    14     2    16    1
    15    20    23    1
    16     5     4    1
    17    10    11    1
    18    10     3    1
    19     4     3    1
    20     4     1    1
    21    19    16    1
    22    17    16    1
    23    16    18    1
