@<TRIPOS>MOLECULE
2,3
 38 38 0 0 0
SMALL
GASTEIGER

@<TRIPOS>ATOM
      1 SI          5.8114    7.3141   10.6012 Si      1  UNL1        0.0000
      2 S           9.8695    8.5234   12.4800 S.3     1  UNL1        0.0000
      3 N           6.9889    8.1068   11.6296 N.pl3   1  UNL1        0.0000
      4 C           7.2791    7.6208   12.8821 C.ar    1  UNL1        0.0000
      5 C           8.5785    7.7231   13.4142 C.ar    1  UNL1        0.0000
      6 C           8.8804    7.2703   14.6877 C.ar    1  UNL1        0.0000
      7 H           9.8846    7.4005   15.0621 H       1  UNL1        0.0000
      8 C           7.9089    6.6700   15.4671 C.ar    1  UNL1        0.0000
      9 H           8.1469    6.3170   16.4583 H       1  UNL1        0.0000
     10 C           6.6248    6.5440   14.9599 C.ar    1  UNL1        0.0000
     11 H           5.8502    6.0898   15.5604 H       1  UNL1        0.0000
     12 C           6.3171    7.0077   13.6972 C.ar    1  UNL1        0.0000
     13 H           5.3060    6.9355   13.3289 H       1  UNL1        0.0000
     14 C          10.6364    7.0971   11.5265 C.3     1  UNL1        0.0000
     15 C          11.8637    7.7088   10.8640 C.3     1  UNL1        0.0000
     16 H          12.3804    6.9609   10.2652 H       1  UNL1        0.0000
     17 H          12.5514    8.0898   11.6154 H       1  UNL1        0.0000
     18 H          11.5659    8.5314   10.2174 H       1  UNL1        0.0000
     19 C          11.0246    5.9867   12.4899 C.3     1  UNL1        0.0000
     20 H          11.5190    5.1847   11.9441 H       1  UNL1        0.0000
     21 H          10.1480    5.5758   12.9864 H       1  UNL1        0.0000
     22 H          11.7087    6.3618   13.2469 H       1  UNL1        0.0000
     23 C           9.6433    6.6129   10.4824 C.3     1  UNL1        0.0000
     24 H          10.1120    5.8699    9.8369 H       1  UNL1        0.0000
     25 H           9.3148    7.4539    9.8653 H       1  UNL1        0.0000
     26 H           8.7747    6.1562   10.9553 H       1  UNL1        0.0000
     27 C           5.8637    5.4137   10.8727 C.3     1  UNL1        0.0000
     28 H           6.3470    5.1444   11.8070 H       1  UNL1        0.0000
     29 H           6.3937    4.9117   10.0691 H       1  UNL1        0.0000
     30 H           4.8596    5.0047   10.8985 H       1  UNL1        0.0000
     31 C           6.3838    7.6783    8.8188 C.3     1  UNL1        0.0000
     32 H           6.5663    8.7461    8.6946 H       1  UNL1        0.0000
     33 H           5.6218    7.3763    8.1069 H       1  UNL1        0.0000
     34 H           7.2934    7.1453    8.5552 H       1  UNL1        0.0000
     35 C           4.0349    7.9720   10.8853 C.3     1  UNL1        0.0000
     36 H           4.0240    9.0591   10.8670 H       1  UNL1        0.0000
     37 H           3.6200    7.6587   11.8392 H       1  UNL1        0.0000
     38 H           3.3620    7.6176   10.1100 H       1  UNL1        0.0000
@<TRIPOS>BOND
     1    33    31    1
     2    34    31    1
     3    32    31    1
     4    31     1    1
     5    24    23    1
     6    25    23    1
     7    29    27    1
     8    38    35    1
     9    18    15    1
    10    16    15    1
    11    23    26    1
    12    23    14    1
    13     1    27    1
    14     1    35    1
    15     1     3    1
    16    15    14    1
    17    15    17    1
    18    36    35    1
    19    27    30    1
    20    27    28    1
    21    35    37    1
    22    14     2    1
    23    14    19    1
    24     3     4    1
    25    20    19    1
    26     2     5    1
    27    19    21    1
    28    19    22    1
    29     4     5   ar
    30     4    12   ar
    31    13    12    1
    32     5     6   ar
    33    12    10   ar
    34     6     7    1
    35     6     8   ar
    36    10     8   ar
    37    10    11    1
    38     8     9    1
