@<TRIPOS>MOLECULE
1,3
 38 38 0 0 0
SMALL
GASTEIGER

@<TRIPOS>ATOM
      1 S           1.8349    7.4020    3.0678 S.3     1  UNL1        0.0000
      2 SI         -2.5111    6.1767    2.2795 Si      1  UNL1        0.0000
      3 N          -0.7628    6.1931    2.0948 N.pl3   1  UNL1        0.0000
      4 C          -0.1578    7.0297    1.1847 C.ar    1  UNL1        0.0000
      5 C           1.0430    7.6916    1.4976 C.ar    1  UNL1        0.0000
      6 C           1.6687    8.5248    0.5837 C.ar    1  UNL1        0.0000
      7 H           2.6062    8.9864    0.8548 H       1  UNL1        0.0000
      8 C           1.1055    8.7511   -0.6582 C.ar    1  UNL1        0.0000
      9 H           1.5932    9.4034   -1.3654 H       1  UNL1        0.0000
     10 C          -0.0819    8.1140   -0.9860 C.ar    1  UNL1        0.0000
     11 H          -0.5261    8.2688   -1.9581 H       1  UNL1        0.0000
     12 C          -0.6984    7.2705   -0.0861 C.ar    1  UNL1        0.0000
     13 H          -1.6050    6.7534   -0.3597 H       1  UNL1        0.0000
     14 C           1.2214    8.8275    4.1310 C.3     1  UNL1        0.0000
     15 C          -0.2646    8.6421    4.3914 C.3     1  UNL1        0.0000
     16 H          -0.6311    9.4385    5.0388 H       1  UNL1        0.0000
     17 H          -0.4438    7.6869    4.8908 H       1  UNL1        0.0000
     18 H          -0.8293    8.6726    3.4598 H       1  UNL1        0.0000
     19 C           2.0242    8.7040    5.4200 C.3     1  UNL1        0.0000
     20 H           1.7174    9.4731    6.1265 H       1  UNL1        0.0000
     21 H           3.0868    8.8190    5.2184 H       1  UNL1        0.0000
     22 H           1.8646    7.7286    5.8773 H       1  UNL1        0.0000
     23 C           1.5037   10.1478    3.4323 C.3     1  UNL1        0.0000
     24 H           1.2137   10.9724    4.0814 H       1  UNL1        0.0000
     25 H           0.9426   10.2281    2.5034 H       1  UNL1        0.0000
     26 H           2.5638   10.2428    3.2098 H       1  UNL1        0.0000
     27 C          -3.2681    7.8343    1.6830 C.3     1  UNL1        0.0000
     28 H          -3.6993    7.7383    0.6927 H       1  UNL1        0.0000
     29 H          -2.5379    8.6369    1.6385 H       1  UNL1        0.0000
     30 H          -4.0644    8.1483    2.3497 H       1  UNL1        0.0000
     31 C          -2.8281    6.0300    4.1624 C.3     1  UNL1        0.0000
     32 H          -3.7240    5.4454    4.3439 H       1  UNL1        0.0000
     33 H          -2.9714    6.9968    4.6373 H       1  UNL1        0.0000
     34 H          -1.9997    5.5230    4.6637 H       1  UNL1        0.0000
     35 C          -3.3549    4.7341    1.3505 C.3     1  UNL1        0.0000
     36 H          -3.0990    3.7764    1.7945 H       1  UNL1        0.0000
     37 H          -3.0781    4.6931    0.3006 H       1  UNL1        0.0000
     38 H          -4.4343    4.8413    1.4005 H       1  UNL1        0.0000
@<TRIPOS>BOND
     1    11    10    1
     2     9     8    1
     3    10     8   ar
     4    10    12   ar
     5     8     6   ar
     6    13    12    1
     7    12     4   ar
     8    37    35    1
     9     6     7    1
    10     6     5   ar
    11    28    27    1
    12     4     5   ar
    13     4     3    1
    14    35    38    1
    15    35    36    1
    16    35     2    1
    17     5     1    1
    18    29    27    1
    19    27     2    1
    20    27    30    1
    21     3     2    1
    22     2    31    1
    23    25    23    1
    24     1    14    1
    25    26    23    1
    26    23    24    1
    27    23    14    1
    28    18    15    1
    29    14    15    1
    30    14    19    1
    31    31    32    1
    32    31    33    1
    33    31    34    1
    34    15    17    1
    35    15    16    1
    36    21    19    1
    37    19    22    1
    38    19    20    1
