@<TRIPOS>MOLECULE
2,3
 38 38 0 0 0
SMALL
GASTEIGER

@<TRIPOS>ATOM
      1 SI          0.3690    2.9349    1.5810 Si      1  UNL1        0.0000
      2 S           4.6562    1.9643    3.0613 S.3     1  UNL1        0.0000
      3 N           2.0405    3.0565    2.1197 N.pl3   1  UNL1        0.0000
      4 C           3.0629    3.2847    1.2441 C.ar    1  UNL1        0.0000
      5 C           4.3711    2.8433    1.5372 C.ar    1  UNL1        0.0000
      6 C           5.4440    3.1031    0.7016 C.ar    1  UNL1        0.0000
      7 H           6.4274    2.7701    0.9983 H       1  UNL1        0.0000
      8 C           5.2521    3.7814   -0.4867 C.ar    1  UNL1        0.0000
      9 H           6.0847    3.9804   -1.1429 H       1  UNL1        0.0000
     10 C           3.9732    4.2095   -0.8132 C.ar    1  UNL1        0.0000
     11 H           3.8070    4.7490   -1.7345 H       1  UNL1        0.0000
     12 C           2.9079    3.9742    0.0285 C.ar    1  UNL1        0.0000
     13 H           1.9299    4.3469   -0.2284 H       1  UNL1        0.0000
     14 C           4.4119    0.1721    2.5517 C.3     1  UNL1        0.0000
     15 C           3.1046    0.0109    1.7979 C.3     1  UNL1        0.0000
     16 H           3.1104    0.5810    0.8700 H       1  UNL1        0.0000
     17 H           2.2756    0.3494    2.4206 H       1  UNL1        0.0000
     18 H           2.9516   -1.0400    1.5548 H       1  UNL1        0.0000
     19 C           4.3758   -0.5887    3.8686 C.3     1  UNL1        0.0000
     20 H           3.5269   -0.2418    4.4571 H       1  UNL1        0.0000
     21 H           5.2899   -0.4226    4.4355 H       1  UNL1        0.0000
     22 H           4.2653   -1.6556    3.6840 H       1  UNL1        0.0000
     23 C           5.6058   -0.2303    1.6970 C.3     1  UNL1        0.0000
     24 H           5.5362   -1.2866    1.4431 H       1  UNL1        0.0000
     25 H           6.5354   -0.0631    2.2361 H       1  UNL1        0.0000
     26 H           5.6289    0.3444    0.7735 H       1  UNL1        0.0000
     27 C          -0.6524    1.9463    2.8516 C.3     1  UNL1        0.0000
     28 H          -0.1661    1.0124    3.1244 H       1  UNL1        0.0000
     29 H          -1.6405    1.7136    2.4665 H       1  UNL1        0.0000
     30 H          -0.7668    2.5263    3.7658 H       1  UNL1        0.0000
     31 C           0.3170    1.9471   -0.0644 C.3     1  UNL1        0.0000
     32 H           1.1887    2.1136   -0.6874 H       1  UNL1        0.0000
     33 H          -0.5562    2.2318   -0.6399 H       1  UNL1        0.0000
     34 H           0.2473    0.8806    0.1241 H       1  UNL1        0.0000
     35 C          -0.4488    4.6594    1.3882 C.3     1  UNL1        0.0000
     36 H          -0.5790    5.1093    2.3680 H       1  UNL1        0.0000
     37 H          -1.4317    4.5644    0.9376 H       1  UNL1        0.0000
     38 H           0.1277    5.3516    0.7821 H       1  UNL1        0.0000
@<TRIPOS>BOND
     1    11    10    1
     2     9     8    1
     3    10     8   ar
     4    10    12   ar
     5    32    31    1
     6    33    31    1
     7     8     6   ar
     8    13    12    1
     9    31    34    1
    10    31     1    1
    11    12     4   ar
    12     6     7    1
    13     6     5   ar
    14    26    23    1
    15    38    35    1
    16    16    15    1
    17    37    35    1
    18     4     5   ar
    19     4     3    1
    20    35     1    1
    21    35    36    1
    22    24    23    1
    23     5     2    1
    24    18    15    1
    25     1     3    1
    26     1    27    1
    27    23    25    1
    28    23    14    1
    29    15    17    1
    30    15    14    1
    31    29    27    1
    32    14     2    1
    33    14    19    1
    34    27    28    1
    35    27    30    1
    36    22    19    1
    37    19    21    1
    38    19    20    1
