@<TRIPOS>MOLECULE
2,3
 38 38 0 0 0
SMALL
GASTEIGER

@<TRIPOS>ATOM
      1 SI          2.9254    2.6711    7.1529 Si      1  UNL1        0.0000
      2 S           3.6659    5.3596    3.4468 S.3     1  UNL1        0.0000
      3 N           3.5003    3.3178    5.6200 N.pl3   1  UNL1        0.0000
      4 C           5.0025    4.8398    4.5051 C.ar    1  UNL1        0.0000
      5 C           6.2632    5.3767    4.3068 C.ar    1  UNL1        0.0000
      6 H           6.4047    6.0934    3.5118 H       1  UNL1        0.0000
      7 C           7.3174    4.9929    5.1133 C.ar    1  UNL1        0.0000
      8 H           8.2997    5.4131    4.9655 H       1  UNL1        0.0000
      9 C           7.0907    4.0517    6.1075 C.ar    1  UNL1        0.0000
     10 H           7.9059    3.7344    6.7416 H       1  UNL1        0.0000
     11 C           5.8425    3.4974    6.2907 C.ar    1  UNL1        0.0000
     12 H           5.6976    2.7423    7.0458 H       1  UNL1        0.0000
     13 C           4.7450    3.8641    5.4920 C.ar    1  UNL1        0.0000
     14 C           2.9483    6.8228    4.3824 C.3     1  UNL1        0.0000
     15 C           2.6894    6.4484    5.8302 C.3     1  UNL1        0.0000
     16 H           2.2263    7.2886    6.3463 H       1  UNL1        0.0000
     17 H           3.6155    6.1970    6.3451 H       1  UNL1        0.0000
     18 H           2.0120    5.5948    5.8751 H       1  UNL1        0.0000
     19 C           1.6444    7.1248    3.6591 C.3     1  UNL1        0.0000
     20 H           0.9845    6.2614    3.7393 H       1  UNL1        0.0000
     21 H           1.8263    7.3337    2.6066 H       1  UNL1        0.0000
     22 H           1.1551    7.9865    4.1093 H       1  UNL1        0.0000
     23 C           3.9394    7.9729    4.2687 C.3     1  UNL1        0.0000
     24 H           3.5238    8.8634    4.7370 H       1  UNL1        0.0000
     25 H           4.1490    8.1949    3.2249 H       1  UNL1        0.0000
     26 H           4.8738    7.7260    4.7681 H       1  UNL1        0.0000
     27 C           3.4941    3.8346    8.5704 C.3     1  UNL1        0.0000
     28 H           4.4511    4.3054    8.3750 H       1  UNL1        0.0000
     29 H           3.5867    3.2753    9.4943 H       1  UNL1        0.0000
     30 H           2.7688    4.6238    8.7405 H       1  UNL1        0.0000
     31 C           3.5259    0.8721    7.4405 C.3     1  UNL1        0.0000
     32 H           3.0282    0.2085    6.7396 H       1  UNL1        0.0000
     33 H           3.2701    0.5425    8.4426 H       1  UNL1        0.0000
     34 H           4.5964    0.7428    7.3126 H       1  UNL1        0.0000
     35 C           1.0190    2.6592    7.1785 C.3     1  UNL1        0.0000
     36 H           0.6035    3.6184    6.8779 H       1  UNL1        0.0000
     37 H           0.6406    2.4216    8.1681 H       1  UNL1        0.0000
     38 H           0.6444    1.9146    6.4784 H       1  UNL1        0.0000
@<TRIPOS>BOND
     1    21    19    1
     2    25    23    1
     3     2    14    1
     4     2     4    1
     5     6     5    1
     6    19    20    1
     7    19    22    1
     8    19    14    1
     9    23    14    1
    10    23    24    1
    11    23    26    1
    12     5     4   ar
    13     5     7   ar
    14    14    15    1
    15     4    13   ar
    16     8     7    1
    17     7     9   ar
    18    13     3    1
    19    13    11   ar
    20     3     1    1
    21    15    18    1
    22    15    17    1
    23    15    16    1
    24     9    11   ar
    25     9    10    1
    26    11    12    1
    27    38    35    1
    28    32    31    1
    29    36    35    1
    30     1    35    1
    31     1    31    1
    32     1    27    1
    33    35    37    1
    34    34    31    1
    35    31    33    1
    36    28    27    1
    37    27    30    1
    38    27    29    1
