@<TRIPOS>MOLECULE
1,2
 56 58 0 0 0
SMALL
GASTEIGER

@<TRIPOS>ATOM
      1 S          14.3364   19.3213   21.0072 S.3     1  UNL1       -0.0107
      2 N          15.5557   21.0550   22.3768 N.pl3   1  UNL1       -0.1161
      3 N          16.0529   22.2942   22.8051 N.pl3   1  UNL1       -0.1995
      4 N          14.4716   22.0633   20.5873 N.2     1  UNL1       -0.2223
      5 C          15.4268   22.8911   23.8944 C.ar    1  UNL1        0.0551
      6 C          16.1653   23.6339   24.8207 C.ar    1  UNL1       -0.0387
      7 C          15.5437   24.1886   25.9215 C.ar    1  UNL1       -0.0599
      8 C          14.1842   24.0111   26.1281 C.ar    1  UNL1       -0.0616
      9 C          13.4496   23.2634   25.2221 C.ar    1  UNL1       -0.0599
     10 C          14.0613   22.7002   24.1187 C.ar    1  UNL1       -0.0387
     11 C          16.9998   22.9407   22.0236 C.ar    1  UNL1        0.0551
     12 C          17.8361   22.1859   21.1975 C.ar    1  UNL1       -0.0387
     13 C          18.7809   22.8065   20.4039 C.ar    1  UNL1       -0.0599
     14 C          18.9152   24.1849   20.4172 C.ar    1  UNL1       -0.0616
     15 C          18.0754   24.9398   21.2208 C.ar    1  UNL1       -0.0599
     16 C          17.1212   24.3328   22.0121 C.ar    1  UNL1       -0.0387
     17 C          14.7745   21.0486   21.2718 C.2     1  UNL1        0.2051
     18 C          13.6717   22.1440   19.4627 C.ar    1  UNL1        0.0734
     19 C          12.2849   21.9395   19.5196 C.ar    1  UNL1       -0.0191
     20 C          11.5295   22.1732   18.3802 C.ar    1  UNL1       -0.0563
     21 C          12.1153   22.5922   17.2021 C.ar    1  UNL1       -0.0611
     22 C          13.4833   22.7870   17.1523 C.ar    1  UNL1       -0.0563
     23 C          14.2734   22.5701   18.2675 C.ar    1  UNL1       -0.0191
     24 C          11.5998   21.4999   20.7922 C.3     1  UNL1       -0.0195
     25 C          10.8607   20.1767   20.5852 C.3     1  UNL1       -0.0586
     26 C          10.6542   22.5890   21.3043 C.3     1  UNL1       -0.0586
     27 C          15.7660   22.7962   18.2114 C.3     1  UNL1       -0.0195
     28 C          16.0712   24.2877   18.0624 C.3     1  UNL1       -0.0586
     29 C          16.4155   21.9928   17.0840 C.3     1  UNL1       -0.0586
     30 H          17.2269   23.7643   24.6704 H       1  UNL1        0.0637
     31 H          16.1255   24.7608   26.6301 H       1  UNL1        0.0618
     32 H          13.7030   24.4517   26.9882 H       1  UNL1        0.0618
     33 H          12.3886   23.1255   25.3718 H       1  UNL1        0.0618
     34 H          13.4865   22.1214   23.4110 H       1  UNL1        0.0637
     35 H          17.7256   21.1082   21.1876 H       1  UNL1        0.0637
     36 H          19.4164   22.2080   19.7669 H       1  UNL1        0.0618
     37 H          19.6570   24.6679   19.7990 H       1  UNL1        0.0618
     38 H          18.1546   26.0173   21.2194 H       1  UNL1        0.0618
     39 H          16.4520   24.9351   22.6072 H       1  UNL1        0.0637
     40 H          10.4596   22.0257   18.4133 H       1  UNL1        0.0621
     41 H          11.5082   22.7686   16.3256 H       1  UNL1        0.0618
     42 H          13.9390   23.1170   16.2301 H       1  UNL1        0.0621
     43 H          12.3669   21.3347   21.5555 H       1  UNL1        0.0344
     44 H          10.3917   19.8544   21.5130 H       1  UNL1        0.0235
     45 H          11.5655   19.4105   20.2700 H       1  UNL1        0.0235
     46 H          10.0886   20.2759   19.8265 H       1  UNL1        0.0235
     47 H          10.2015   22.2842   22.2466 H       1  UNL1        0.0235
     48 H          11.2009   23.5161   21.4653 H       1  UNL1        0.0235
     49 H           9.8593   22.7794   20.5872 H       1  UNL1        0.0235
     50 H          16.1915   22.4598   19.1613 H       1  UNL1        0.0344
     51 H          17.1466   24.4537   18.0615 H       1  UNL1        0.0235
     52 H          15.6393   24.8395   18.8938 H       1  UNL1        0.0235
     53 H          15.6562   24.6761   17.1347 H       1  UNL1        0.0235
     54 H          17.4990   22.0853   17.1377 H       1  UNL1        0.0235
     55 H          16.0926   22.3519   16.1096 H       1  UNL1        0.0235
     56 H          16.1495   20.9415   17.1686 H       1  UNL1        0.0235
@<TRIPOS>BOND
     1    55    29    1
     2    42    22    1
     3    41    21    1
     4    29    54    1
     5    29    56    1
     6    29    27    1
     7    53    28    1
     8    22    21   ar
     9    22    23   ar
    10    21    20   ar
    11    51    28    1
    12    28    27    1
    13    28    52    1
    14    27    23    1
    15    27    50    1
    16    23    18   ar
    17    20    40    1
    18    20    19   ar
    19    18    19   ar
    20    18     4    1
    21    19    24    1
    22    36    13    1
    23    37    14    1
    24    46    25    1
    25    45    25    1
    26    13    14   ar
    27    13    12   ar
    28    14    15   ar
    29    25    24    1
    30    25    44    1
    31    49    26    1
    32     4    17    2
    33    24    26    1
    34    24    43    1
    35     1    17    1
    36    35    12    1
    37    12    11   ar
    38    38    15    1
    39    15    16   ar
    40    17     2    1
    41    26    48    1
    42    26    47    1
    43    16    11   ar
    44    16    39    1
    45    11     3    1
    46     2     3    1
    47     3     5    1
    48    34    10    1
    49     5    10   ar
    50     5     6   ar
    51    10     9   ar
    52    30     6    1
    53     6     7   ar
    54     9    33    1
    55     9     8   ar
    56     7     8   ar
    57     7    31    1
    58     8    32    1
