@<TRIPOS>MOLECULE
2,3,4,5,16
 33 33 0 0 0
SMALL
GASTEIGER

@<TRIPOS>ATOM
      1 SI         18.7703    3.8099   -0.4232 Si      1  UNL1        0.0000
      2 N          23.1293    2.3012    0.7308 N.pl3   1  UNL1        0.0000
      3 O          23.6925    2.9859    2.9727 O.3     1  UNL1        0.0000
      4 O          20.7126    2.2798    1.2534 O.3     1  UNL1        0.0000
      5 C          24.8372    2.6339    2.2841 C.3     1  UNL1        0.0000
      6 H1         25.3582    1.8314    2.8274 H       1  UNL1        0.0000
      7 H2         25.5023    3.5043    2.1924 H       1  UNL1        0.0000
      8 CA         24.4217    2.1340    0.9177 C.3     1  UNL1        0.0000
      9 C          25.1769    1.4895   -0.0512 C.2     1  UNL1        0.0000
     10 H          26.2394    1.3539    0.0686 H       1  UNL1        0.0000
     11 C          24.5107    1.0011   -1.1697 C.2     1  UNL1        0.0000
     12 H          25.0698    0.4922   -1.9413 H       1  UNL1        0.0000
     13 C          23.1308    1.1183   -1.2885 C.2     1  UNL1        0.0000
     14 H          22.6015    0.6970   -2.1282 H       1  UNL1        0.0000
     15 C          22.4562    1.7871   -0.2749 C.2     1  UNL1        0.0000
     16 C          20.9779    2.0477   -0.1065 C.3     1  UNL1        0.0000
     17 H          20.4002    1.1703   -0.4403 H       1  UNL1        0.0000
     18 C          20.5301    3.2663   -0.8832 C.2     1  UNL1        0.0000
     19 C          21.3308    3.9582   -1.6779 C.2     1  UNL1        0.0000
     20 H          22.3618    3.7024   -1.8667 H       1  UNL1        0.0000
     21 H          20.9677    4.8357   -2.1840 H       1  UNL1        0.0000
     22 C          18.8894    5.3474    0.6951 C.3     1  UNL1        0.0000
     23 H          19.7304    5.2284    1.3725 H       1  UNL1        0.0000
     24 H          17.9881    5.5161    1.2758 H       1  UNL1        0.0000
     25 H          19.0672    6.2395    0.1021 H       1  UNL1        0.0000
     26 C          17.7538    2.3714    0.3181 C.3     1  UNL1        0.0000
     27 H          18.3018    1.8767    1.1136 H       1  UNL1        0.0000
     28 H          17.5140    1.6286   -0.4383 H       1  UNL1        0.0000
     29 H          16.8124    2.7250    0.7289 H       1  UNL1        0.0000
     30 C          17.9087    4.3087   -2.0612 C.3     1  UNL1        0.0000
     31 H          17.8815    3.4935   -2.7771 H       1  UNL1        0.0000
     32 H          18.4083    5.1447   -2.5383 H       1  UNL1        0.0000
     33 H          16.8844    4.6104   -1.8726 H       1  UNL1        0.0000
@<TRIPOS>BOND
     1    31    30    1
     2    32    30    1
     3    21    19    1
     4    14    13    1
     5    30    33    1
     6    30     1    1
     7    12    11    1
     8    20    19    1
     9    19    18    2
    10    13    11    1
    11    13    15    2
    12    11     9    2
    13    18     1    1
    14    18    16    1
    15    17    16    1
    16    28    26    1
    17     1    26    1
    18     1    22    1
    19    15    16    1
    20    15     2    1
    21    16     4    1
    22     9    10    1
    23     9     8    1
    24    25    22    1
    25    26    29    1
    26    26    27    1
    27    22    24    1
    28    22    23    1
    29     2     8    1
    30     8     5    1
    31     7     5    1
    32     5     6    1
    33     5     3    1
