@<TRIPOS>MOLECULE
2,3,4,16,19
 32 32 0 0 0
SMALL
GASTEIGER

@<TRIPOS>ATOM
      1 SI          2.7764   11.6697    1.9661 Si      1  UNL1        0.0000
      2 N           3.3012    7.9882    4.3598 N.pl3   1  UNL1        0.0000
      3 O           3.6326    5.9207    3.0946 O.3     1  UNL1        0.0000
      4 O           5.4184    9.1883    3.7427 O.3     1  UNL1        0.0000
      5 C           2.5699    5.8094    3.9637 C.3     1  UNL1        0.0000
      6 H1          2.7823    5.0347    4.7215 H       1  UNL1        0.0000
      7 H2          1.6538    5.5092    3.4274 H       1  UNL1        0.0000
      8 CA          2.3315    7.1388    4.6540 C.3     1  UNL1        0.0000
      9 C           1.2646    7.5418    5.4388 C.2     1  UNL1        0.0000
     10 H           0.4722    6.8569    5.6950 H       1  UNL1        0.0000
     11 C           1.2388    8.8655    5.8753 C.2     1  UNL1        0.0000
     12 H           0.4262    9.2057    6.4995 H       1  UNL1        0.0000
     13 C           2.2267    9.7569    5.4791 C.2     1  UNL1        0.0000
     14 H           2.1893   10.7954    5.7673 H       1  UNL1        0.0000
     15 C           3.2650    9.2757    4.6944 C.2     1  UNL1        0.0000
     16 C           4.3213    9.9952    3.9024 C.3     1  UNL1        0.0000
     17 H           4.5828   10.9804    4.3067 H       1  UNL1        0.0000
     18 C           3.5889   10.0677    2.5333 C.2     1  UNL1        0.0000
     19 C           3.5697    8.8892    1.9393 C.2     1  UNL1        0.0000
     20 H           3.1052    8.7511    0.9711 H       1  UNL1        0.0000
     21 C           3.0847   11.9108    0.0961 C.3     1  UNL1        0.0000
     22 H           2.7251   11.0614   -0.4760 H       1  UNL1        0.0000
     23 H           4.1426   12.0278   -0.1194 H       1  UNL1        0.0000
     24 H           2.5747   12.7948   -0.2744 H       1  UNL1        0.0000
     25 C           0.8956   11.5395    2.2960 C.3     1  UNL1        0.0000
     26 H           0.4650   10.6972    1.7635 H       1  UNL1        0.0000
     27 H           0.3723   12.4350    1.9751 H       1  UNL1        0.0000
     28 H           0.6883   11.3945    3.3523 H       1  UNL1        0.0000
     29 C           3.4664   13.1814    2.9081 C.3     1  UNL1        0.0000
     30 H           3.0722   14.1090    2.5041 H       1  UNL1        0.0000
     31 H           4.5489   13.2291    2.8395 H       1  UNL1        0.0000
     32 H           3.2046   13.1479    3.9614 H       1  UNL1        0.0000
@<TRIPOS>BOND
     1    22    21    1
     2    24    21    1
     3    23    21    1
     4    21     1    1
     5    20    19    1
     6    26    25    1
     7    19    18    2
     8     1    25    1
     9     1    18    1
    10     1    29    1
    11    27    25    1
    12    25    28    1
    13    30    29    1
    14    18    16    1
    15    31    29    1
    16    29    32    1
    17     3     5    1
    18     7     5    1
    19     4    16    1
    20    16    17    1
    21    16    15    1
    22     5     8    1
    23     5     6    1
    24     2     8    1
    25     2    15    1
    26     8     9    1
    27    15    13    2
    28     9    10    1
    29     9    11    2
    30    13    14    1
    31    13    11    1
    32    11    12    1
