@<TRIPOS>MOLECULE
4,9,10
 70 69 0 0 0
SMALL
GASTEIGER

@<TRIPOS>ATOM
      1 CL          6.7509    1.6605   50.7965 Cl      1  UNL1        0.0000
      2 CL         10.6773    4.1632   53.4367 Cl      1  UNL1        0.0000
      3 SI          8.7752    2.1867   51.1229 Si      1  UNL1        0.0000
      4 SI          8.9226    2.9840   53.3275 Si      1  UNL1        0.0000
      5 SI          9.6702    2.8767   49.0270 Si      1  UNL1        0.0000
      6 SI          7.3706    3.8847   54.8928 Si      1  UNL1        0.0000
      7 O           6.9561   -0.2226   53.5684 O.3     1  UNL1        0.0000
      8 O          12.3366    1.5333   52.1695 O.3     1  UNL1        0.0000
      9 C           7.9730    0.2134   53.2663 C.3     1  UNL1        0.0000
     10 C          11.2444    1.2798   52.4112 C.3     1  UNL1        0.0000
     11 C          11.5697    2.8622   49.2361 C.3     1  UNL1        0.0000
     12 H          12.0699    3.3535   48.4076 H       1  UNL1        0.0000
     13 H          11.9605    1.8516   49.2984 H       1  UNL1        0.0000
     14 H          11.8604    3.3789   50.1441 H       1  UNL1        0.0000
     15 C           9.2158    1.5935   47.6337 C.3     1  UNL1        0.0000
     16 C          10.1611    1.7225   46.4368 C.3     1  UNL1        0.0000
     17 H           9.8934    0.9943   45.6717 H       1  UNL1        0.0000
     18 H          11.1900    1.5357   46.7325 H       1  UNL1        0.0000
     19 H          10.1049    2.7123   45.9922 H       1  UNL1        0.0000
     20 C           7.7753    1.7591   47.1526 C.3     1  UNL1        0.0000
     21 H           7.5264    0.9737   46.4393 H       1  UNL1        0.0000
     22 H           7.6335    2.7155   46.6560 H       1  UNL1        0.0000
     23 H           7.0786    1.6931   47.9838 H       1  UNL1        0.0000
     24 C           9.3663    0.1888   48.2197 C.3     1  UNL1        0.0000
     25 H           9.1856   -0.5613   47.4507 H       1  UNL1        0.0000
     26 H           8.6479    0.0244   49.0200 H       1  UNL1        0.0000
     27 H          10.3669    0.0281   48.6149 H       1  UNL1        0.0000
     28 C           9.1102    4.7230   48.7735 C.3     1  UNL1        0.0000
     29 C           9.8688    5.5946   49.7754 C.3     1  UNL1        0.0000
     30 H           9.5046    6.6199   49.7299 H       1  UNL1        0.0000
     31 H          10.9319    5.6069   49.5534 H       1  UNL1        0.0000
     32 H           9.7357    5.2326   50.7923 H       1  UNL1        0.0000
     33 C           7.6135    4.8899   49.0317 C.3     1  UNL1        0.0000
     34 H           7.3243    5.9312   48.8948 H       1  UNL1        0.0000
     35 H           7.3635    4.6001   50.0493 H       1  UNL1        0.0000
     36 H           7.0222    4.2839   48.3520 H       1  UNL1        0.0000
     37 C           9.4307    5.2208   47.3635 C.3     1  UNL1        0.0000
     38 H           9.1926    6.2806   47.2780 H       1  UNL1        0.0000
     39 H           8.8485    4.6883   46.6161 H       1  UNL1        0.0000
     40 H          10.4865    5.0957   47.1350 H       1  UNL1        0.0000
     41 C           6.0290    2.5449   55.1318 C.3     1  UNL1        0.0000
     42 H           5.1666    2.9294   55.6671 H       1  UNL1        0.0000
     43 H           6.4048    1.6933   55.6900 H       1  UNL1        0.0000
     44 H           5.6793    2.1760   54.1739 H       1  UNL1        0.0000
     45 C           8.2308    4.1792   56.6155 C.3     1  UNL1        0.0000
     46 C           9.0798    5.4492   56.6201 C.3     1  UNL1        0.0000
     47 H           9.6153    5.5380   57.5650 H       1  UNL1        0.0000
     48 H           8.4623    6.3362   56.5040 H       1  UNL1        0.0000
     49 H           9.8123    5.4291   55.8178 H       1  UNL1        0.0000
     50 C           7.1963    4.2648   57.7403 C.3     1  UNL1        0.0000
     51 H           7.6975    4.4236   58.6947 H       1  UNL1        0.0000
     52 H           6.6227    3.3444   57.8115 H       1  UNL1        0.0000
     53 H           6.5063    5.0891   57.5824 H       1  UNL1        0.0000
     54 C           9.1495    2.9883   56.8928 C.3     1  UNL1        0.0000
     55 H           9.5996    3.0819   57.8803 H       1  UNL1        0.0000
     56 H           9.9552    2.9432   56.1631 H       1  UNL1        0.0000
     57 H           8.6023    2.0487   56.8624 H       1  UNL1        0.0000
     58 C           6.5397    5.4147   54.0239 C.3     1  UNL1        0.0000
     59 C           7.5874    6.3394   53.4058 C.3     1  UNL1        0.0000
     60 H           7.1003    7.1815   52.9156 H       1  UNL1        0.0000
     61 H           8.1777    5.8099   52.6619 H       1  UNL1        0.0000
     62 H           8.2643    6.7330   54.1579 H       1  UNL1        0.0000
     63 C           5.6799    6.2190   55.0001 C.3     1  UNL1        0.0000
     64 H           5.1547    7.0126   54.4695 H       1  UNL1        0.0000
     65 H           6.2891    6.6821   55.7718 H       1  UNL1        0.0000
     66 H           4.9355    5.5867   55.4782 H       1  UNL1        0.0000
     67 C           5.6376    4.8965   52.9029 C.3     1  UNL1        0.0000
     68 H           5.2356    5.7311   52.3304 H       1  UNL1        0.0000
     69 H           4.8011    4.3332   53.3058 H       1  UNL1        0.0000
     70 H           6.1876    4.2517   52.2211 H       1  UNL1        0.0000
@<TRIPOS>BOND
     1    17    16    1
     2    19    16    1
     3    16    18    1
     4    16    15    1
     5    21    20    1
     6    39    37    1
     7    22    20    1
     8    40    37    1
     9    20    15    1
    10    20    23    1
    11    38    37    1
    12    37    28    1
    13    25    24    1
    14    15    24    1
    15    15     5    1
    16    24    27    1
    17    24    26    1
    18    36    33    1
    19    12    11    1
    20    28     5    1
    21    28    33    1
    22    28    29    1
    23    34    33    1
    24     5    11    1
    25     5     3    1
    26    33    35    1
    27    11    13    1
    28    11    14    1
    29    31    29    1
    30    30    29    1
    31    29    32    1
    32     1     3    1
    33     3     4    1
    34     8    10    1
    35    70    67    1
    36    68    67    1
    37    61    59    1
    38    67    69    1
    39    67    58    1
    40    60    59    1
    41     9     7    1
    42     4     2    1
    43     4     6    1
    44    59    58    1
    45    59    62    1
    46    58     6    1
    47    58    63    1
    48    44    41    1
    49    64    63    1
    50     6    41    1
    51     6    45    1
    52    63    66    1
    53    63    65    1
    54    41    42    1
    55    41    43    1
    56    49    46    1
    57    56    54    1
    58    48    46    1
    59    45    46    1
    60    45    54    1
    61    45    50    1
    62    46    47    1
    63    57    54    1
    64    54    55    1
    65    53    50    1
    66    50    52    1
    67    50    51    1
    68     3    10    0
    69     4     9    0
