@<TRIPOS>MOLECULE
2,5
 79 81 0 0 0
SMALL
GASTEIGER

@<TRIPOS>ATOM
      1 SI         -0.5017   14.4503   11.1714 Si      1  UNL1        0.0000
      2 N           4.3606   12.5233    7.7389 N.pl3   1  UNL1        0.5000
      3 N           2.3567   11.4847    8.1470 N.2     1  UNL1        0.5000
      4 N           0.3940   13.3063   12.1215 N.2     1  UNL1        0.0000
      5 C           4.2222   14.1627    9.8284 C.2     1  UNL1        0.0000
      6 C           3.1184   13.4199    9.5816 C.2     1  UNL1        0.0000
      7 C           3.2132   12.3782    8.4713 C.2     1  UNL1        0.0000
      8 C           1.8350   13.6312   10.2703 C.2     1  UNL1        0.0000
      9 C           1.5128   13.0050   11.5787 C.2     1  UNL1        0.0000
     10 C           0.8506   14.4660    9.8319 C.2     1  UNL1        0.0000
     11 C           4.5263   11.7554    6.5038 C.3     1  UNL1        0.0000
     12 H           5.5094   12.0654    6.0842 H       1  UNL1        0.0000
     13 C           4.5505   10.2349    6.7187 C.3     1  UNL1        0.0000
     14 H           5.3514    9.9470    7.3948 H       1  UNL1        0.0000
     15 H           4.6973    9.7312    5.7659 H       1  UNL1        0.0000
     16 H           3.5996    9.9335    7.1465 H       1  UNL1        0.0000
     17 C           3.4359   12.1033    5.4791 C.3     1  UNL1        0.0000
     18 H           2.4796   11.7601    5.8610 H       1  UNL1        0.0000
     19 H           3.6425   11.6192    4.5277 H       1  UNL1        0.0000
     20 H           3.3819   13.1793    5.3267 H       1  UNL1        0.0000
     21 C           1.0933   11.1930    8.7455 C.3     1  UNL1        0.0000
     22 H           0.9974   11.5967    9.7673 H       1  UNL1        0.0000
     23 C           0.9463    9.6678    8.8086 C.3     1  UNL1        0.0000
     24 H           0.9776    9.2527    7.8042 H       1  UNL1        0.0000
     25 H           0.0002    9.4012    9.2736 H       1  UNL1        0.0000
     26 H           1.7562    9.2267    9.3857 H       1  UNL1        0.0000
     27 C          -0.0321   11.7795    7.8863 C.3     1  UNL1        0.0000
     28 H           0.0258   12.8644    7.8712 H       1  UNL1        0.0000
     29 H          -0.9996   11.4846    8.2856 H       1  UNL1        0.0000
     30 H           0.0539   11.4129    6.8658 H       1  UNL1        0.0000
     31 C           4.2854   15.3297   10.7093 C.ar    1  UNL1        0.0000
     32 C           3.3701   16.3867   10.6334 C.ar    1  UNL1        0.0000
     33 H           2.5517   16.3307    9.9342 H       1  UNL1        0.0000
     34 C           3.5126   17.5151   11.4174 C.ar    1  UNL1        0.0000
     35 H           2.7887   18.3133   11.3281 H       1  UNL1        0.0000
     36 C           4.5650   17.6453   12.3137 C.ar    1  UNL1        0.0000
     37 C           5.4902   16.6089   12.3860 C.ar    1  UNL1        0.0000
     38 H           6.3250   16.6915   13.0689 H       1  UNL1        0.0000
     39 C           5.3656   15.4850   11.5949 C.ar    1  UNL1        0.0000
     40 H           6.1096   14.6978   11.6734 H       1  UNL1        0.0000
     41 C           4.7037   18.8562   13.1851 C.3     1  UNL1        0.0000
     42 H           4.3420   18.6373   14.1905 H       1  UNL1        0.0000
     43 H           4.1248   19.6875   12.7900 H       1  UNL1        0.0000
     44 H           5.7462   19.1589   13.2648 H       1  UNL1        0.0000
     45 C           2.4354   12.1037   12.3778 C.3     1  UNL1        0.0000
     46 C           3.3882   11.2314   11.5596 C.3     1  UNL1        0.0000
     47 H           3.9309   10.5715   12.2359 H       1  UNL1        0.0000
     48 H           4.1098   11.8304   11.0083 H       1  UNL1        0.0000
     49 H           2.8400   10.6144   10.8539 H       1  UNL1        0.0000
     50 C           3.2516   13.0426   13.2804 C.3     1  UNL1        0.0000
     51 H           2.5834   13.6240   13.9106 H       1  UNL1        0.0000
     52 H           3.8445   13.7306   12.6826 H       1  UNL1        0.0000
     53 H           3.9179   12.4619   13.9157 H       1  UNL1        0.0000
     54 C           1.5808   11.1830   13.2582 C.3     1  UNL1        0.0000
     55 H           2.2164   10.6096   13.9296 H       1  UNL1        0.0000
     56 H           1.0136   10.4933   12.6375 H       1  UNL1        0.0000
     57 H           0.8796   11.7710   13.8408 H       1  UNL1        0.0000
     58 C          -0.6815   16.0771   12.1436 C.3     1  UNL1        0.0000
     59 H          -0.9969   15.8617   13.1585 H       1  UNL1        0.0000
     60 H          -1.4260   16.7270   11.6968 H       1  UNL1        0.0000
     61 H           0.2588   16.6162   12.1930 H       1  UNL1        0.0000
     62 C          -2.1844   13.7643   10.6159 C.3     1  UNL1        0.0000
     63 H          -2.0937   12.7491   10.2465 H       1  UNL1        0.0000
     64 H          -2.6171   14.3714    9.8278 H       1  UNL1        0.0000
     65 H          -2.8754   13.7560   11.4515 H       1  UNL1        0.0000
     66 C           0.8151   15.2624    8.6206 C.ar    1  UNL1        0.0000
     67 C          -0.1709   16.2495    8.5019 C.ar    1  UNL1        0.0000
     68 H          -0.8699   16.3889    9.3122 H       1  UNL1        0.0000
     69 C          -0.2636   17.0552    7.3865 C.ar    1  UNL1        0.0000
     70 H          -1.0357   17.8108    7.3374 H       1  UNL1        0.0000
     71 C           0.6199   16.9086    6.3247 C.ar    1  UNL1        0.0000
     72 C           1.5949   15.9230    6.4252 C.ar    1  UNL1        0.0000
     73 H           2.2912   15.7866    5.6089 H       1  UNL1        0.0000
     74 C           1.6992   15.1190    7.5424 C.ar    1  UNL1        0.0000
     75 H           2.4729   14.3675    7.5663 H       1  UNL1        0.0000
     76 C           0.5215   17.7659    5.1004 C.3     1  UNL1        0.0000
     77 H          -0.1117   18.6312    5.2808 H       1  UNL1        0.0000
     78 H           0.0935   17.1948    4.2758 H       1  UNL1        0.0000
     79 H           1.5074   18.1088    4.7909 H       1  UNL1        0.0000
@<TRIPOS>BOND
     1    78    76    1
     2    19    17    1
     3    79    76    1
     4    76    77    1
     5    76    71    1
     6    20    17    1
     7    17    18    1
     8    17    11    1
     9    73    72    1
    10    15    13    1
    11    12    11    1
    12    71    72   ar
    13    71    69   ar
    14    72    74   ar
    15    11    13    1
    16    11     2    1
    17    13    16    1
    18    13    14    1
    19    30    27    1
    20    70    69    1
    21    69    67   ar
    22    74    75    1
    23    74    66   ar
    24     2     7    1
    25    24    23    1
    26    28    27    1
    27    27    29    1
    28    27    21    1
    29     3     7    2
    30     3    21    1
    31     7     6    1
    32    67    66   ar
    33    67    68    1
    34    66    10    1
    35    21    23    1
    36    21    22    1
    37    23    25    1
    38    23    26    1
    39     6     5    2
    40     6     8    1
    41    64    62    1
    42     5    31    1
    43    10     8    2
    44    10     1    1
    45    33    32    1
    46    63    62    1
    47     8     9    1
    48    62     1    1
    49    62    65    1
    50    32    31   ar
    51    32    34   ar
    52    31    39   ar
    53    49    46    1
    54    48    46    1
    55     1     4    1
    56     1    58    1
    57    35    34    1
    58    34    36   ar
    59    46    47    1
    60    46    45    1
    61     9     4    2
    62     9    45    1
    63    39    40    1
    64    39    37   ar
    65    60    58    1
    66    58    61    1
    67    58    59    1
    68    36    37   ar
    69    36    41    1
    70    45    54    1
    71    45    50    1
    72    37    38    1
    73    56    54    1
    74    52    50    1
    75    43    41    1
    76    41    44    1
    77    41    42    1
    78    54    57    1
    79    54    55    1
    80    50    51    1
    81    50    53    1
