@<TRIPOS>MOLECULE
8,93
 97 102 0 0 0
SMALL
GASTEIGER

@<TRIPOS>ATOM
      1 C          -0.5497    3.7570   11.5178 C.ar    1  UNL1        0.0000
      2 C          -1.8462    3.5005   11.1261 C.ar    1  UNL1        0.0000
      3 C          -2.5330    4.7519   11.1534 C.ar    1  UNL1        0.0000
      4 C          -3.9224    5.0508   10.9005 C.2     1  UNL1        0.0000
      5 C          -1.9328    7.1645   11.6325 C.3     1  UNL1        0.0000
      6 C          -1.5950    5.7071   11.5590 C.ar    1  UNL1        0.0000
      7 C          -1.0303    8.0428   12.4634 C.2     1  UNL1        0.0000
      8 C           0.3573    8.0639   12.0328 C.2     1  UNL1        0.0000
      9 C           0.5420    2.7659   11.8314 C.3     1  UNL1        0.0000
     10 H           1.4509    3.3403   12.0920 H       1  UNL1        0.0000
     11 C           0.1327    1.9110   13.0399 C.3     1  UNL1        0.0000
     12 H          -0.2026    2.5394   13.8630 H       1  UNL1        0.0000
     13 H           0.9662    1.2974   13.3775 H       1  UNL1        0.0000
     14 H          -0.6892    1.2541   12.7654 H       1  UNL1        0.0000
     15 C           0.8816    1.8432   10.6560 C.3     1  UNL1        0.0000
     16 H           0.0551    1.1674   10.4558 H       1  UNL1        0.0000
     17 H           1.7588    1.2444   10.8959 H       1  UNL1        0.0000
     18 H           1.0868    2.4127    9.7531 H       1  UNL1        0.0000
     19 C          -2.4634    2.1950   10.8545 C.ar    1  UNL1        0.0000
     20 C          -2.2797    1.5399    9.6398 C.ar    1  UNL1        0.0000
     21 H          -1.6769    2.0044    8.8718 H       1  UNL1        0.0000
     22 C          -2.8777    0.3150    9.4051 C.ar    1  UNL1        0.0000
     23 H          -2.7291   -0.1825    8.4573 H       1  UNL1        0.0000
     24 C          -3.6682   -0.2716   10.3791 C.ar    1  UNL1        0.0000
     25 H          -4.1341   -1.2284   10.1947 H       1  UNL1        0.0000
     26 C          -3.8645    0.3766   11.5868 C.ar    1  UNL1        0.0000
     27 H          -4.4859   -0.0747   12.3471 H       1  UNL1        0.0000
     28 C          -3.2689    1.6023   11.8226 C.ar    1  UNL1        0.0000
     29 H          -3.4219    2.1139   12.7622 H       1  UNL1        0.0000
     30 C          -4.7140    4.2292    9.9102 C.3     1  UNL1        0.0000
     31 H          -4.0980    3.4143    9.5242 H       1  UNL1        0.0000
     32 C          -5.9579    3.6520   10.5823 C.3     1  UNL1        0.0000
     33 H          -5.6737    2.9441   11.3575 H       1  UNL1        0.0000
     34 H          -6.5780    3.1363    9.8522 H       1  UNL1        0.0000
     35 H          -6.5280    4.4581   11.0352 H       1  UNL1        0.0000
     36 C          -5.1074    5.1485    8.7510 C.3     1  UNL1        0.0000
     37 H          -5.7035    5.9732    9.1313 H       1  UNL1        0.0000
     38 H          -5.6844    4.5979    8.0110 H       1  UNL1        0.0000
     39 H          -4.2210    5.5591    8.2713 H       1  UNL1        0.0000
     40 C          -3.4156    6.3068   14.2359 C.3     1  UNL1        0.0000
     41 H          -4.2529    5.6517   14.4518 H       1  UNL1        0.0000
     42 H          -3.3521    7.0428   15.0267 H       1  UNL1        0.0000
     43 H          -2.5089    5.7083   14.2560 H       1  UNL1        0.0000
     44 C          -4.7180    8.6832   12.5816 C.3     1  UNL1        0.0000
     45 H          -5.0521    8.9793   11.5950 H       1  UNL1        0.0000
     46 H          -4.1935    9.5109   13.0386 H       1  UNL1        0.0000
     47 H          -5.5978    8.4735   13.1769 H       1  UNL1        0.0000
     48 C          -2.0221    7.7757   10.2613 C.ar    1  UNL1        0.0000
     49 C          -1.6769    7.0815    9.1061 C.ar    1  UNL1        0.0000
     50 H          -1.3264    6.0599    9.1765 H       1  UNL1        0.0000
     51 C          -1.7925    7.6754    7.8606 C.ar    1  UNL1        0.0000
     52 H          -1.5209    7.1172    6.9755 H       1  UNL1        0.0000
     53 C          -2.2511    8.9756    7.7441 C.ar    1  UNL1        0.0000
     54 H          -2.3445    9.4360    6.7718 H       1  UNL1        0.0000
     55 C          -2.5881    9.6806    8.8882 C.ar    1  UNL1        0.0000
     56 H          -2.9474   10.6965    8.8079 H       1  UNL1        0.0000
     57 C          -2.4701    9.0883   10.1307 C.ar    1  UNL1        0.0000
     58 H          -2.7341    9.6397   11.0192 H       1  UNL1        0.0000
     59 C          -0.9350    9.5033   14.3524 C.3     1  UNL1        0.0000
     60 H           0.1266    9.6442   14.0828 H       1  UNL1        0.0000
     61 C          -1.0232    9.0178   15.8026 C.3     1  UNL1        0.0000
     62 H          -2.0751    8.8662   16.0501 H       1  UNL1        0.0000
     63 H          -0.5109    8.0601   15.9022 H       1  UNL1        0.0000
     64 C          -0.4062   10.0373   16.7542 C.3     1  UNL1        0.0000
     65 H           0.6548   10.1588   16.5196 H       1  UNL1        0.0000
     66 H          -0.4791    9.6720   17.7808 H       1  UNL1        0.0000
     67 C          -1.1100   11.3848   16.6291 C.3     1  UNL1        0.0000
     68 H          -2.1545   11.2758   16.9291 H       1  UNL1        0.0000
     69 H          -0.6435   12.1139   17.2951 H       1  UNL1        0.0000
     70 C          -1.0482   11.8800   15.1878 C.3     1  UNL1        0.0000
     71 H          -0.0063   12.0588   14.9093 H       1  UNL1        0.0000
     72 H          -1.5836   12.8275   15.0950 H       1  UNL1        0.0000
     73 C          -1.6595   10.8520   14.2426 C.3     1  UNL1        0.0000
     74 H          -1.6087   11.2136   13.2133 H       1  UNL1        0.0000
     75 H          -2.7107   10.6965   14.4923 H       1  UNL1        0.0000
     76 C           0.6523   10.3028   11.2274 C.3     1  UNL1        0.0000
     77 H          -0.4022   10.4436   11.5147 H       1  UNL1        0.0000
     78 C           1.5342   11.3177   11.9597 C.3     1  UNL1        0.0000
     79 H           2.5750   11.1352   11.6828 H       1  UNL1        0.0000
     80 H           1.4458   11.1726   13.0387 H       1  UNL1        0.0000
     81 C           1.1360   12.7426   11.5911 C.3     1  UNL1        0.0000
     82 H           0.1076   12.9252   11.9121 H       1  UNL1        0.0000
     83 H           1.7799   13.4520   12.1158 H       1  UNL1        0.0000
     84 C           1.2422   12.9564   10.0844 C.3     1  UNL1        0.0000
     85 H           2.2839   12.8429    9.7752 H       1  UNL1        0.0000
     86 H           0.9258   13.9700    9.8293 H       1  UNL1        0.0000
     87 C           0.3808   11.9388    9.3427 C.3     1  UNL1        0.0000
     88 H           0.4822   12.0766    8.2643 H       1  UNL1        0.0000
     89 H          -0.6691   12.0924    9.6017 H       1  UNL1        0.0000
     90 C           0.7845   10.5169    9.7168 C.3     1  UNL1        0.0000
     91 H           0.1514    9.7981    9.1927 H       1  UNL1        0.0000
     92 H           1.8214   10.3341    9.4261 H       1  UNL1        0.0000
     93 N          -0.3850    5.1145   11.7743 N.ar    1  UNL1        0.0000
     94 N          -4.5130    6.0353   11.4679 N.2     1  UNL1        0.0000
     95 N          -1.5902    8.5632   13.4847 N.2     1  UNL1        0.0000
     96 N           1.1112    8.9621   11.5450 N.2     1  UNL1        0.0000
     97 SI         -3.6596    7.1148   12.5219 Si      1  UNL1        0.0000
@<TRIPOS>BOND
     1    54    53    1
     2    52    51    1
     3    53    51   ar
     4    53    55   ar
     5    51    49   ar
     6    38    36    1
     7    88    87    1
     8    39    36    1
     9    23    22    1
    10    36    37    1
    11    36    30    1
    12    56    55    1
    13    21    20    1
    14    55    57   ar
    15    49    50    1
    16    49    48   ar
    17    91    90    1
    18    87    89    1
    19    87    90    1
    20    87    84    1
    21    22    20   ar
    22    22    24   ar
    23    92    90    1
    24    31    30    1
    25    20    19   ar
    26    90    76    1
    27    18    15    1
    28    85    84    1
    29    86    84    1
    30    34    32    1
    31    30    32    1
    32    30     4    1
    33    84    81    1
    34    57    48   ar
    35    57    58    1
    36    25    24    1
    37    48     5    1
    38    24    26   ar
    39    16    15    1
    40    32    35    1
    41    32    33    1
    42    15    17    1
    43    15     9    1
    44    19     2    1
    45    19    28   ar
    46     4     3    1
    47     4    94    2
    48     2     3   ar
    49     2     1   ar
    50     3     6   ar
    51    76    77    1
    52    76    96    1
    53    76    78    1
    54    94    97    1
    55     1    93   ar
    56     1     9    1
    57    96     8    2
    58     6     5    1
    59     6    93   ar
    60    26    28   ar
    61    26    27    1
    62    81    82    1
    63    81    78    1
    64    81    83    1
    65    45    44    1
    66     5     7    1
    67     5    97    1
    68    79    78    1
    69    28    29    1
    70     9    10    1
    71     9    11    1
    72    78    80    1
    73     8     7    1
    74     7    95    2
    75    97    44    1
    76    97    40    1
    77    44    46    1
    78    44    47    1
    79    14    11    1
    80    11    13    1
    81    11    12    1
    82    74    73    1
    83    95    59    1
    84    60    59    1
    85    40    43    1
    86    40    41    1
    87    40    42    1
    88    73    59    1
    89    73    75    1
    90    73    70    1
    91    59    61    1
    92    71    70    1
    93    72    70    1
    94    70    67    1
    95    61    63    1
    96    61    62    1
    97    61    64    1
    98    65    64    1
    99    67    64    1
   100    67    68    1
   101    67    69    1
   102    64    66    1
