@<TRIPOS>MOLECULE
1,2
 22 21 0 0 0
SMALL
GASTEIGER

@<TRIPOS>ATOM
      1 N          -0.4549    5.6288    9.8290 N.3     1  UNL1       -0.2241
      2 C          -1.1489    4.8058    9.1605 C.3     1  UNL1        0.0797
      3 C          -2.1232    5.0829    8.0531 C.3     1  UNL1       -0.0323
      4 C          -2.5375    3.8051    7.3273 C.3     1  UNL1       -0.0634
      5 C          -0.2745    7.0814    9.7823 C.3     1  UNL1        0.0289
      6 C           0.3790    7.4751   11.1117 C.3     1  UNL1       -0.0458
      7 C           0.6808    7.3984    8.6233 C.3     1  UNL1       -0.0458
      8 C          -1.6021    7.8343    9.6251 C.3     1  UNL1       -0.0458
      9 H          -3.0106    5.5629    8.4813 H       1  UNL1        0.0282
     10 H          -1.6772    5.7811    7.3333 H       1  UNL1        0.0282
     11 H          -3.2026    4.0366    6.4972 H       1  UNL1        0.0230
     12 H          -3.0520    3.1321    8.0083 H       1  UNL1        0.0230
     13 H          -1.6580    3.2939    6.9417 H       1  UNL1        0.0230
     14 H           0.6577    8.5262   11.1039 H       1  UNL1        0.0248
     15 H           1.2730    6.8725   11.2680 H       1  UNL1        0.0248
     16 H          -0.3150    7.3022   11.9327 H       1  UNL1        0.0248
     17 H           0.8864    8.4659    8.5909 H       1  UNL1        0.0248
     18 H           0.2496    7.0972    7.6691 H       1  UNL1        0.0248
     19 H           1.6173    6.8596    8.7686 H       1  UNL1        0.0248
     20 H          -2.0001    7.7486    8.6180 H       1  UNL1        0.0248
     21 H          -1.4418    8.8895    9.8354 H       1  UNL1        0.0248
     22 H          -2.3378    7.4527   10.3314 H       1  UNL1        0.0248
@<TRIPOS>BOND
     1    11     4    1
     2    13     4    1
     3     4    12    1
     4     4     3    1
     5    10     3    1
     6    18     7    1
     7     3     9    1
     8     3     2    1
     9    17     7    1
    10    20     8    1
    11     7    19    1
    12     7     5    1
    13     2     1    1
    14     8     5    1
    15     8    21    1
    16     8    22    1
    17     5     1    1
    18     5     6    1
    19    14     6    1
    20     6    15    1
    21     6    16    1
