@<TRIPOS>MOLECULE
2,6
 40 40 0 0 0
SMALL
GASTEIGER

@<TRIPOS>ATOM
      1 N           3.0693    0.5307    7.8778 N.pl3   1  UNL1       -0.3026
      2 C           2.1104   -0.2437    8.4467 C.3     1  UNL1        0.1870
      3 N           1.2080   -0.4537    7.4604 N.pl3   1  UNL1       -0.3063
      4 C           2.7663    0.7872    6.5659 C.2     1  UNL1        0.0084
      5 H           3.3819    1.3756    5.9194 H       1  UNL1        0.0793
      6 N           0.0134   -2.2945    9.7777 N.3     1  UNL1       -0.2330
      7 C           1.5952    0.1682    6.3047 C.2     1  UNL1        0.0079
      8 H           1.0213    0.1249    5.4017 H       1  UNL1        0.0793
      9 C           4.2977    1.0544    8.4860 C.3     1  UNL1        0.0282
     10 C           4.3604    0.7382    9.9777 C.3     1  UNL1       -0.0441
     11 H           3.5050    1.1713   10.4988 H       1  UNL1        0.0250
     12 H           5.2667    1.1775   10.3891 H       1  UNL1        0.0250
     13 H           4.3966   -0.3393   10.1537 H       1  UNL1        0.0250
     14 C           4.3290    2.5781    8.3024 C.3     1  UNL1       -0.0441
     15 H           4.3606    2.8633    7.2542 H       1  UNL1        0.0250
     16 H           5.2138    2.9832    8.7855 H       1  UNL1        0.0250
     17 H           3.4523    3.0307    8.7596 H       1  UNL1        0.0250
     18 C           5.4878    0.3989    7.7759 C.3     1  UNL1       -0.0441
     19 H           5.5028    0.6414    6.7158 H       1  UNL1        0.0250
     20 H           5.4332   -0.6809    7.8875 H       1  UNL1        0.0250
     21 H           6.4182    0.7456    8.2164 H       1  UNL1        0.0250
     22 C           0.0190   -1.2839    7.4794 C.3     1  UNL1        0.0280
     23 H           0.2932   -2.2849    7.1286 H       1  UNL1        0.0477
     24 H          -0.6849   -0.8472    6.7631 H       1  UNL1        0.0477
     25 C          -0.6862   -1.4225    8.8576 C.3     1  UNL1        0.0303
     26 H          -0.7957   -0.4104    9.2817 H       1  UNL1        0.0456
     27 H          -1.6982   -1.7891    8.6380 H       1  UNL1        0.0456
     28 C          -0.5912   -3.6123    9.9510 C.3     1  UNL1        0.0282
     29 C          -0.7739   -4.3757    8.6186 C.3     1  UNL1       -0.0458
     30 H           0.1905   -4.5219    8.1367 H       1  UNL1        0.0248
     31 H          -1.4329   -3.8450    7.9363 H       1  UNL1        0.0248
     32 H          -1.2121   -5.3523    8.8117 H       1  UNL1        0.0248
     33 C          -1.9604   -3.5156   10.6625 C.3     1  UNL1       -0.0458
     34 H          -1.8558   -2.9032   11.5554 H       1  UNL1        0.0248
     35 H          -2.3093   -4.5055   10.9474 H       1  UNL1        0.0248
     36 H          -2.7137   -3.0642   10.0212 H       1  UNL1        0.0248
     37 C           0.3341   -4.4622   10.8389 C.3     1  UNL1       -0.0458
     38 H           0.2956   -4.1135   11.8685 H       1  UNL1        0.0248
     39 H           1.3621   -4.4065   10.4783 H       1  UNL1        0.0248
     40 H           0.0146   -5.5032   10.8226 H       1  UNL1        0.0248
@<TRIPOS>BOND
     1     8     7    1
     2     5     4    1
     3     7     4    2
     4     7     3    1
     5     4     1    1
     6    19    18    1
     7    24    22    1
     8    23    22    1
     9    15    14    1
    10     3    22    1
    11     3     2    1
    12    22    25    1
    13    18    20    1
    14    18    21    1
    15    18     9    1
    16     1     2    1
    17     1     9    1
    18    31    29    1
    19    30    29    1
    20    14     9    1
    21    14    17    1
    22    14    16    1
    23     9    10    1
    24    29    32    1
    25    29    28    1
    26    27    25    1
    27    25    26    1
    28    25     6    1
    29     6    28    1
    30    28    33    1
    31    28    37    1
    32    10    13    1
    33    10    12    1
    34    10    11    1
    35    36    33    1
    36    39    37    1
    37    33    35    1
    38    33    34    1
    39    40    37    1
    40    37    38    1
