@<TRIPOS>MOLECULE
2,3
 32 32 0 0 0
SMALL
GASTEIGER

@<TRIPOS>ATOM
      1 SI          6.2748    9.6131    8.7912 Si      1  UNL1        0.0000
      2 N           5.9727    8.2016    9.8065 N.3     1  UNL1        0.0000
      3 C           7.3851    8.5614    7.6717 C.3     1  UNL1        0.0000
      4 C           8.5883    7.9777    8.1789 C.3     1  UNL1        0.0000
      5 H           9.2689    8.4650    8.8694 H       1  UNL1        0.0000
      6 C           8.8774    6.8213    7.4167 C.2     1  UNL1        0.0000
      7 H           9.7802    6.2303    7.4774 H       1  UNL1        0.0000
      8 C           7.8423    6.6383    6.4960 C.2     1  UNL1        0.0000
      9 H           7.8147    5.8797    5.7277 H       1  UNL1        0.0000
     10 C           6.9070    7.6792    6.6757 C.3     1  UNL1        0.0000
     11 H           6.0306    7.8539    6.0615 H       1  UNL1        0.0000
     12 C           7.2845   11.0499    9.5556 C.3     1  UNL1        0.0000
     13 H           7.6286   11.7157    8.7710 H       1  UNL1        0.0000
     14 H           8.1589   10.6934   10.0917 H       1  UNL1        0.0000
     15 H           6.6889   11.6432   10.2410 H       1  UNL1        0.0000
     16 C           4.7576   10.2996    7.8556 C.3     1  UNL1        0.0000
     17 H           5.0775   10.8528    6.9786 H       1  UNL1        0.0000
     18 H           4.1777   10.9762    8.4731 H       1  UNL1        0.0000
     19 H           4.0932    9.5080    7.5248 H       1  UNL1        0.0000
     20 C           5.4097    8.3085   11.1445 C.3     1  UNL1        0.0000
     21 C           6.5262    8.6937   12.1325 C.3     1  UNL1        0.0000
     22 H           7.3821    8.0320   12.0021 H       1  UNL1        0.0000
     23 H           6.1676    8.6174   13.1555 H       1  UNL1        0.0000
     24 H           6.8481    9.7144   11.9512 H       1  UNL1        0.0000
     25 C           4.7820    6.9788   11.5994 C.3     1  UNL1        0.0000
     26 H           5.5353    6.2086   11.7528 H       1  UNL1        0.0000
     27 H           4.0490    6.6278   10.8735 H       1  UNL1        0.0000
     28 H           4.2670    7.1268   12.5459 H       1  UNL1        0.0000
     29 C           4.3103    9.3797   11.1893 C.3     1  UNL1        0.0000
     30 H           3.5452    9.1660   10.4493 H       1  UNL1        0.0000
     31 H           4.7242   10.3615   10.9829 H       1  UNL1        0.0000
     32 H           3.8502    9.4023   12.1738 H       1  UNL1        0.0000
@<TRIPOS>BOND
     1     9     8    1
     2    11    10    1
     3     8    10    1
     4     8     6    2
     5    10     3    1
     6    17    16    1
     7     6     7    1
     8     6     4    1
     9    19    16    1
    10     3     4    1
    11     3     1    1
    12    16    18    1
    13    16     1    1
    14     4     5    1
    15    13    12    1
    16     1    12    1
    17     1     2    1
    18    12    14    1
    19    12    15    1
    20     2    20    1
    21    30    29    1
    22    27    25    1
    23    31    29    1
    24    20    29    1
    25    20    25    1
    26    20    21    1
    27    29    32    1
    28    25    26    1
    29    25    28    1
    30    24    21    1
    31    22    21    1
    32    21    23    1
