@<TRIPOS>MOLECULE
5,24
 58 61 0 0 0
SMALL
GASTEIGER

@<TRIPOS>ATOM
      1 C          -2.3276    5.5328    9.0705 C.ar    1  UNL1        0.0414
      2 N          -1.9460    4.3469    9.7436 N.pl3   1  UNL1       -0.2762
      3 N          -0.9710    2.5248   10.3553 N.pl3   1  UNL1       -0.2814
      4 C          -3.0065    5.4291    7.8554 C.ar    1  UNL1       -0.0286
      5 N           1.5168    2.7373    9.1529 N.pl3   1  UNL1       -0.2131
      6 C          -3.4556    6.5882    7.2467 C.ar    1  UNL1       -0.0541
      7 H          -3.9979    6.5240    6.3146 H       1  UNL1        0.0623
      8 C          -3.2297    7.8373    7.8118 C.ar    1  UNL1       -0.0498
      9 C          -2.5479    7.9120    9.0161 C.ar    1  UNL1       -0.0541
     10 H          -2.3660    8.8776    9.4660 H       1  UNL1        0.0623
     11 C          -2.0965    6.7709    9.6653 C.ar    1  UNL1       -0.0286
     12 C          -3.2245    4.0795    7.2514 C.3     1  UNL1       -0.0379
     13 H          -3.8501    4.1448    6.3661 H       1  UNL1        0.0278
     14 H          -3.6968    3.4069    7.9663 H       1  UNL1        0.0278
     15 H          -2.2551    3.6563    6.9748 H       1  UNL1        0.0278
     16 C          -3.7048    9.0741    7.1116 C.3     1  UNL1       -0.0397
     17 H          -4.7420    8.9647    6.8004 H       1  UNL1        0.0278
     18 H          -3.1061    9.2475    6.2174 H       1  UNL1        0.0278
     19 H          -3.6210    9.9457    7.7554 H       1  UNL1        0.0278
     20 C          -1.3909    6.8689   10.9835 C.3     1  UNL1       -0.0379
     21 H          -0.9697    7.8620   11.1176 H       1  UNL1        0.0278
     22 H          -0.5924    6.1334   11.0511 H       1  UNL1        0.0278
     23 H          -2.0887    6.6824   11.8013 H       1  UNL1        0.0278
     24 C          -0.8874    3.5290    9.4525 C.3     1  UNL1        0.1955
     25 C          -2.6772    3.8344   10.7795 C.2     1  UNL1        0.0131
     26 H          -3.5663    4.3090   11.1412 H       1  UNL1        0.0797
     27 C          -2.0659    2.6848   11.1616 C.2     1  UNL1        0.0126
     28 H          -2.3132    1.9921   11.9396 H       1  UNL1        0.0797
     29 C          -0.0215    1.5311   10.5087 C.2     1  UNL1        0.0216
     30 H          -0.2790    0.7162   11.1607 H       1  UNL1        0.0803
     31 C           1.2270    1.6554    9.9549 C.2     1  UNL1        0.0677
     32 C           2.2525    0.6984   10.2383 C.2     1  UNL1       -0.0374
     33 H           1.9827   -0.1783   10.8061 H       1  UNL1        0.0637
     34 C           3.5265    0.9198    9.8233 C.2     1  UNL1       -0.0581
     35 H           4.3141    0.2130   10.0419 H       1  UNL1        0.0619
     36 C           3.8237    2.1027    9.1248 C.2     1  UNL1       -0.0380
     37 H           4.8365    2.3441    8.8482 H       1  UNL1        0.0637
     38 C           2.7943    2.9685    8.8145 C.2     1  UNL1        0.0614
     39 C           3.1331    4.2545    8.1528 C.ar    1  UNL1        0.0038
     40 C           3.8075    4.2651    6.9288 C.ar    1  UNL1       -0.0410
     41 C           4.3124    5.4613    6.4402 C.ar    1  UNL1       -0.0553
     42 H           4.8616    5.4602    5.5079 H       1  UNL1        0.0623
     43 C           4.1475    6.6544    7.1272 C.ar    1  UNL1       -0.0499
     44 C           3.4544    6.6325    8.3285 C.ar    1  UNL1       -0.0553
     45 H           3.3174    7.5549    8.8762 H       1  UNL1        0.0623
     46 C           2.9534    5.4529    8.8552 C.ar    1  UNL1       -0.0410
     47 C           3.9925    3.0085    6.1318 C.3     1  UNL1       -0.0391
     48 H           3.1771    2.3147    6.3204 H       1  UNL1        0.0278
     49 H           4.9294    2.5166    6.3934 H       1  UNL1        0.0278
     50 H           4.0243    3.2412    5.0694 H       1  UNL1        0.0278
     51 C           4.6771    7.9383    6.5632 C.3     1  UNL1       -0.0397
     52 H           4.8201    8.6790    7.3465 H       1  UNL1        0.0278
     53 H           3.9704    8.3432    5.8374 H       1  UNL1        0.0278
     54 H           5.6242    7.7765    6.0528 H       1  UNL1        0.0278
     55 C           2.2634    5.4574   10.1863 C.3     1  UNL1       -0.0391
     56 H           2.7855    4.8047   10.8851 H       1  UNL1        0.0278
     57 H           1.2477    5.0759   10.0749 H       1  UNL1        0.0278
     58 H           2.2298    6.4624   10.5992 H       1  UNL1        0.0278
@<TRIPOS>BOND
     1    50    47    1
     2    42    41    1
     3    53    51    1
     4    54    51    1
     5    47    48    1
     6    47    49    1
     7    47    40    1
     8    18    16    1
     9     7     6    1
    10    13    12    1
    11    41    40   ar
    12    41    43   ar
    13    51    43    1
    14    51    52    1
    15    17    16    1
    16    40    39   ar
    17    15    12    1
    18    16    19    1
    19    16     8    1
    20    43    44   ar
    21     6     8   ar
    22     6     4   ar
    23    12     4    1
    24    12    14    1
    25     8     9   ar
    26     4     1   ar
    27    39    38    1
    28    39    46   ar
    29    44    46   ar
    30    44    45    1
    31    38    36    2
    32    38     5    1
    33    37    36    1
    34    46    55    1
    35     9    10    1
    36     9    11   ar
    37     1    11   ar
    38     1     2    1
    39    36    34    1
    40     5    31    1
    41    24     2    1
    42    24     3    1
    43    11    20    1
    44     2    25    1
    45    34    35    1
    46    34    32    2
    47    31    32    1
    48    31    29    2
    49    57    55    1
    50    55    58    1
    51    55    56    1
    52    32    33    1
    53     3    29    1
    54     3    27    1
    55    29    30    1
    56    25    26    1
    57    25    27    2
    58    20    22    1
    59    20    21    1
    60    20    23    1
    61    27    28    1
