@<TRIPOS>MOLECULE
2,14
 55 58 0 0 0
SMALL
GASTEIGER

@<TRIPOS>ATOM
      1 SI         -2.1059    1.9320    2.5040 Si      1  UNL1        0.0000
      2 N          -0.8298    2.5513    3.4596 N.3     1  UNL1        0.0000
      3 C          -2.0736    0.0475    2.3040 C.ar    1  UNL1        0.0000
      4 C          -2.9807   -0.7811    2.9501 C.ar    1  UNL1        0.0000
      5 H          -3.7341   -0.3427    3.5907 H       1  UNL1        0.0000
      6 C          -2.9387   -2.1538    2.7874 C.ar    1  UNL1        0.0000
      7 H          -3.6547   -2.7813    3.3000 H       1  UNL1        0.0000
      8 C          -1.9788   -2.7249    1.9707 C.ar    1  UNL1        0.0000
      9 H          -1.9425   -3.7976    1.8426 H       1  UNL1        0.0000
     10 C          -1.0640   -1.9145    1.3207 C.ar    1  UNL1        0.0000
     11 H          -0.3094   -2.3544    0.6831 H       1  UNL1        0.0000
     12 C          -1.1172   -0.5439    1.4897 C.ar    1  UNL1        0.0000
     13 H          -0.4016    0.0848    0.9796 H       1  UNL1        0.0000
     14 C          -3.7010    2.3719    3.4701 C.3     1  UNL1        0.0000
     15 C          -3.6519    2.3124    4.8669 C.2     1  UNL1        0.0000
     16 H          -2.7110    2.0796    5.3542 H       1  UNL1        0.0000
     17 C          -4.8167    2.3534    5.6249 C.2     1  UNL1        0.0000
     18 H          -4.7673    2.2493    6.7009 H       1  UNL1        0.0000
     19 C          -6.0436    2.5005    5.0040 C.2     1  UNL1        0.0000
     20 H          -6.9525    2.5134    5.5898 H       1  UNL1        0.0000
     21 C          -6.1038    2.6219    3.6226 C.2     1  UNL1        0.0000
     22 H          -7.0619    2.7402    3.1351 H       1  UNL1        0.0000
     23 C          -4.9467    2.5580    2.8704 C.3     1  UNL1        0.0000
     24 H          -5.0106    2.6115    1.7928 H       1  UNL1        0.0000
     25 C          -2.2386    2.6172    0.7188 C.3     1  UNL1        0.0000
     26 H          -2.4492    3.6796    0.6854 H       1  UNL1        0.0000
     27 H          -3.0322    2.0985    0.1900 H       1  UNL1        0.0000
     28 H          -1.3203    2.4342    0.1724 H       1  UNL1        0.0000
     29 SI          0.1108    1.8101    4.6845 Si      1  UNL1        0.0000
     30 C          -0.2433   -0.0358    4.9874 C.ar    1  UNL1        0.0000
     31 C           0.5212   -1.0040    4.3476 C.ar    1  UNL1        0.0000
     32 H           1.3334   -0.6929    3.7069 H       1  UNL1        0.0000
     33 C           0.2682   -2.3524    4.5166 C.ar    1  UNL1        0.0000
     34 H           0.8775   -3.0844    4.0051 H       1  UNL1        0.0000
     35 C          -0.7658   -2.7662    5.3378 C.ar    1  UNL1        0.0000
     36 H          -0.9683   -3.8194    5.4715 H       1  UNL1        0.0000
     37 C          -1.5388   -1.8196    5.9860 C.ar    1  UNL1        0.0000
     38 H          -2.3496   -2.1317    6.6303 H       1  UNL1        0.0000
     39 C          -1.2760   -0.4738    5.8081 C.ar    1  UNL1        0.0000
     40 H          -1.8934    0.2465    6.3263 H       1  UNL1        0.0000
     41 C           1.9347    1.8744    4.1456 C.ar    1  UNL1        0.0000
     42 C           2.2485    1.6394    2.8106 C.ar    1  UNL1        0.0000
     43 H           1.4405    1.4569    2.1166 H       1  UNL1        0.0000
     44 C           3.5581    1.6319    2.3663 C.ar    1  UNL1        0.0000
     45 H           3.7775    1.4455    1.3237 H       1  UNL1        0.0000
     46 C           4.5915    1.8591    3.2603 C.ar    1  UNL1        0.0000
     47 H           5.6173    1.8558    2.9193 H       1  UNL1        0.0000
     48 C           4.3013    2.0827    4.5949 C.ar    1  UNL1        0.0000
     49 H           5.1034    2.2526    5.3000 H       1  UNL1        0.0000
     50 C           2.9862    2.0858    5.0273 C.ar    1  UNL1        0.0000
     51 H           2.7781    2.2532    6.0743 H       1  UNL1        0.0000
     52 C          -0.1670    2.7363    6.3502 C.3     1  UNL1        0.0000
     53 H          -0.8409    3.5882    6.1874 H       1  UNL1        0.0000
     54 H           0.7532    3.1185    6.7791 H       1  UNL1        0.0000
     55 H          -0.6207    2.0910    7.0961 H       1  UNL1        0.0000
@<TRIPOS>BOND
     1    28    25    1
     2    27    25    1
     3    11    10    1
     4    26    25    1
     5    25     1    1
     6    13    12    1
     7    10    12   ar
     8    10     8   ar
     9    45    44    1
    10    12     3   ar
    11    24    23    1
    12     9     8    1
    13     8     6   ar
    14    43    42    1
    15     3     1    1
    16     3     4   ar
    17    44    42   ar
    18    44    46   ar
    19     1     2    1
    20     1    14    1
    21     6     4   ar
    22     6     7    1
    23    42    41   ar
    24    23    14    1
    25    23    21    1
    26    47    46    1
    27     4     5    1
    28    22    21    1
    29    46    48   ar
    30     2    29    1
    31    14    15    1
    32    21    19    2
    33    32    31    1
    34    34    33    1
    35    41    29    1
    36    41    50   ar
    37    31    33   ar
    38    31    30   ar
    39    33    35   ar
    40    48    50   ar
    41    48    49    1
    42    29    30    1
    43    29    52    1
    44    15    16    1
    45    15    17    2
    46    30    39   ar
    47    19    20    1
    48    19    17    1
    49    50    51    1
    50    35    36    1
    51    35    37   ar
    52    17    18    1
    53    39    37   ar
    54    39    40    1
    55    37    38    1
    56    53    52    1
    57    52    54    1
    58    52    55    1
