@<TRIPOS>MOLECULE
1,3
 47 49 0 0 0
SMALL
GASTEIGER

@<TRIPOS>ATOM
      1 N           4.0802   16.7075   10.0448 N.pl3   1  UNL1       -0.1489
      2 N           5.0634   16.1401   10.8932 N.pl3   1  UNL1       -0.2017
      3 C           2.2588   18.0997    9.5468 C.3     1  UNL1       -0.0063
      4 H           2.1936   19.1893    9.4287 H       1  UNL1        0.0330
      5 H           1.2841   17.7600    9.9244 H       1  UNL1        0.0330
      6 C           3.3118   17.7480   10.5847 C.2     1  UNL1        0.0452
      7 C           3.4889   18.3169   11.7840 C.2     1  UNL1       -0.0605
      8 H           4.3018   18.0014   12.4249 H       1  UNL1        0.0591
      9 C           2.6377   19.4188   12.3420 C.3     1  UNL1       -0.0211
     10 H           1.7469   19.5396   11.7178 H       1  UNL1        0.0343
     11 C           3.4042   20.7481   12.3535 C.3     1  UNL1       -0.0467
     12 H           3.7127   20.9983   11.3359 H       1  UNL1        0.0271
     13 H           4.3086   20.6324   12.9555 H       1  UNL1        0.0271
     14 C           2.5463   21.8694   12.9315 C.3     1  UNL1       -0.0525
     15 H           3.1112   22.8050   12.9416 H       1  UNL1        0.0265
     16 H           1.6683   22.0165   12.2971 H       1  UNL1        0.0265
     17 C           2.0923   21.5210   14.3458 C.3     1  UNL1       -0.0530
     18 H           1.4629   22.3204   14.7450 H       1  UNL1        0.0265
     19 H           2.9678   21.4297   14.9931 H       1  UNL1        0.0265
     20 C           1.3260   20.2017   14.3468 C.3     1  UNL1       -0.0525
     21 H           0.4198   20.3102   13.7453 H       1  UNL1        0.0265
     22 H           1.0216   19.9487   15.3656 H       1  UNL1        0.0265
     23 C           2.1867   19.0833   13.7672 C.3     1  UNL1       -0.0467
     24 H           3.0682   18.9392   14.3966 H       1  UNL1        0.0271
     25 H           1.6288   18.1440   13.7592 H       1  UNL1        0.0271
     26 C           6.3706   16.5700   10.8022 C.ar    1  UNL1        0.0550
     27 C           6.6746   17.7589   10.1285 C.ar    1  UNL1       -0.0387
     28 H           5.8630   18.3511    9.7358 H       1  UNL1        0.0637
     29 C           7.9830   18.1720    9.9852 C.ar    1  UNL1       -0.0599
     30 H           8.1930   19.1037    9.4793 H       1  UNL1        0.0618
     31 C           9.0249   17.4075   10.4847 C.ar    1  UNL1       -0.0616
     32 H          10.0477   17.7356   10.3768 H       1  UNL1        0.0618
     33 C           8.7364   16.2117   11.1244 C.ar    1  UNL1       -0.0599
     34 H           9.5405   15.5970   11.5041 H       1  UNL1        0.0618
     35 C           7.4328   15.7882   11.2784 C.ar    1  UNL1       -0.0387
     36 H           7.2280   14.8428   11.7580 H       1  UNL1        0.0637
     37 C           4.6053   15.3120   11.9191 C.ar    1  UNL1        0.0550
     38 C           5.1626   15.3372   13.1998 C.ar    1  UNL1       -0.0387
     39 H           5.9770   16.0120   13.4177 H       1  UNL1        0.0637
     40 C           4.6567   14.5253   14.1952 C.ar    1  UNL1       -0.0599
     41 H           5.0948   14.5603   15.1825 H       1  UNL1        0.0618
     42 C           3.5844   13.6846   13.9440 C.ar    1  UNL1       -0.0616
     43 H           3.1914   13.0549   14.7280 H       1  UNL1        0.0618
     44 C           3.0134   13.6723   12.6821 C.ar    1  UNL1       -0.0599
     45 H           2.1707   13.0273   12.4796 H       1  UNL1        0.0618
     46 C           3.5156   14.4755   11.6784 C.ar    1  UNL1       -0.0387
     47 H           3.0728   14.4792   10.6929 H       1  UNL1        0.0637
@<TRIPOS>BOND
     1     4     3    1
     2    30    29    1
     3     3     5    1
     4     3     6    1
     5    28    27    1
     6    29    27   ar
     7    29    31   ar
     8     1     6    1
     9     1     2    1
    10    27    26   ar
    11    32    31    1
    12    31    33   ar
    13     6     7    2
    14    47    46    1
    15    26     2    1
    16    26    35   ar
    17     2    37    1
    18    33    35   ar
    19    33    34    1
    20    35    36    1
    21    12    11    1
    22    46    37   ar
    23    46    44   ar
    24    10     9    1
    25     7     9    1
    26     7     8    1
    27    37    38   ar
    28    16    14    1
    29     9    11    1
    30     9    23    1
    31    11    14    1
    32    11    13    1
    33    45    44    1
    34    44    42   ar
    35    14    15    1
    36    14    17    1
    37    38    39    1
    38    38    40   ar
    39    21    20    1
    40    25    23    1
    41    23    20    1
    42    23    24    1
    43    42    40   ar
    44    42    43    1
    45    40    41    1
    46    17    20    1
    47    17    18    1
    48    17    19    1
    49    20    22    1
