@<TRIPOS>MOLECULE
1,2
 33 33 0 0 0
SMALL
GASTEIGER

@<TRIPOS>ATOM
      1 N          -1.1939    7.3949    9.8727 N.pl3   1  UNL1       -0.2193
      2 C          -1.9697    9.8194    8.8121 C.3     1  UNL1        0.0070
      3 C          -2.8706    8.9634    9.3580 C.2     1  UNL1       -0.0577
      4 H          -3.9393    9.1855    9.4235 H       1  UNL1        0.0594
      5 C          -2.4484    7.7152    9.9105 C.2     1  UNL1        0.0248
      6 C          -2.4994   11.1378    8.3387 C.3     1  UNL1       -0.0544
      7 H          -3.5889   11.2061    8.4429 H       1  UNL1        0.0239
      8 H          -2.2352   11.3021    7.2939 H       1  UNL1        0.0239
      9 H          -2.0439   11.9411    8.9244 H       1  UNL1        0.0239
     10 C          -3.5004    6.8325   10.5262 C.3     1  UNL1       -0.0249
     11 H          -3.0791    5.8992   10.8952 H       1  UNL1        0.0290
     12 H          -4.2666    6.6121    9.7834 H       1  UNL1        0.0290
     13 H          -3.9830    7.3563   11.3507 H       1  UNL1        0.0290
     14 C          -0.7207    6.2105   10.4611 C.ar    1  UNL1        0.0591
     15 C          -0.5764    5.0591    9.6762 C.ar    1  UNL1       -0.0270
     16 C          -0.0140    3.9256   10.2379 C.ar    1  UNL1       -0.0541
     17 H           0.1021    3.0399    9.6292 H       1  UNL1        0.0623
     18 C           0.3990    3.9022   11.5632 C.ar    1  UNL1       -0.0498
     19 C           0.2099    5.0384   12.3363 C.ar    1  UNL1       -0.0541
     20 H           0.5037    5.0273   13.3767 H       1  UNL1        0.0623
     21 C          -0.3522    6.1926   11.8125 C.ar    1  UNL1       -0.0270
     22 C          -1.0586    5.0802    8.2580 C.3     1  UNL1       -0.0379
     23 H          -2.1466    4.9993    8.2324 H       1  UNL1        0.0278
     24 H          -0.6437    4.2497    7.6933 H       1  UNL1        0.0278
     25 H          -0.7877    6.0256    7.7797 H       1  UNL1        0.0278
     26 C           1.0049    2.6642   12.1528 C.3     1  UNL1       -0.0397
     27 H           1.6386    2.9091   13.0018 H       1  UNL1        0.0278
     28 H           1.5963    2.1327   11.4106 H       1  UNL1        0.0278
     29 H           0.2205    1.9910   12.5005 H       1  UNL1        0.0278
     30 C          -0.5893    7.3938   12.6802 C.3     1  UNL1       -0.0379
     31 H          -0.4412    8.3234   12.1272 H       1  UNL1        0.0278
     32 H           0.0748    7.3832   13.5417 H       1  UNL1        0.0278
     33 H          -1.6171    7.3905   13.0484 H       1  UNL1        0.0278
@<TRIPOS>BOND
     1     8     6    1
     2    24    22    1
     3    25    22    1
     4    23    22    1
     5    22    15    1
     6     6     7    1
     7     6     2    1
     8     6     9    1
     9     2     3    1
    10     3     4    1
    11     3     5    2
    12    17    16    1
    13    15    16   ar
    14    15    14   ar
    15    12    10    1
    16     1     5    1
    17     1    14    1
    18     5    10    1
    19    16    18   ar
    20    14    21   ar
    21    10    11    1
    22    10    13    1
    23    28    26    1
    24    18    26    1
    25    18    19   ar
    26    21    19   ar
    27    21    30    1
    28    31    30    1
    29    26    29    1
    30    26    27    1
    31    19    20    1
    32    30    33    1
    33    30    32    1
