@<TRIPOS>MOLECULE
2,3
 10 10 0 0 0
SMALL
GASTEIGER

@<TRIPOS>ATOM
      1 F          -0.8826    2.9954   13.0420 F       1  UNL1       -0.1839
      2 N           1.2836    3.5854   12.8283 N.ar    1  UNL1       -0.2176
      3 C           2.4411    3.7551   12.1142 C.ar    1  UNL1        0.0923
      4 C           2.4009    3.3948   10.7537 C.ar    1  UNL1       -0.0340
      5 H           3.2972    3.5054   10.1560 H       1  UNL1        0.0639
      6 C           1.2511    2.9052   10.1561 C.ar    1  UNL1       -0.0554
      7 H           1.2423    2.6362    9.1083 H       1  UNL1        0.0620
      8 C           0.0999    2.7606   10.9142 C.ar    1  UNL1       -0.0072
      9 H          -0.8273    2.3876   10.5101 H       1  UNL1        0.0662
     10 C           0.2029    3.1209   12.2430 C.ar    1  UNL1        0.2138
@<TRIPOS>BOND
     1     7     6    1
     2     5     4    1
     3     6     4   ar
     4     6     8   ar
     5     9     8    1
     6     4     3   ar
     7     8    10   ar
     8     3     2   ar
     9    10     2   ar
    10    10     1    1
