@<TRIPOS>MOLECULE
4,5
 47 49 0 0 0
SMALL
GASTEIGER

@<TRIPOS>ATOM
      1 P           9.5558   12.3722   10.6795 P.3     1  UNL1        0.0000
      2 SI          9.3863   13.3823   13.4929 Si      1  UNL1        0.0000
      3 F          10.2196    7.6711   10.8846 F       1  UNL1        0.0000
      4 N          10.2805    9.8971   10.6938 N.pl3   1  UNL1        0.0000
      5 C           8.8215   12.1810   12.1718 C.3     1  UNL1        0.0000
      6 C          11.2600   13.7464   13.7412 C.3     1  UNL1        0.0000
      7 H          11.8821   12.8953   13.4906 H       1  UNL1        0.0000
      8 H          11.4733   14.0189   14.7709 H       1  UNL1        0.0000
      9 H          11.5706   14.5746   13.1109 H       1  UNL1        0.0000
     10 C           8.6779   15.1585   13.3066 C.3     1  UNL1        0.0000
     11 H           9.2253   15.8560   13.9338 H       1  UNL1        0.0000
     12 H           7.6353   15.2083   13.5977 H       1  UNL1        0.0000
     13 H           8.7565   15.5079   12.2811 H       1  UNL1        0.0000
     14 C           8.7318   12.7142   15.1639 C.3     1  UNL1        0.0000
     15 H           7.6483   12.7558   15.2063 H       1  UNL1        0.0000
     16 H           9.1137   13.2966   15.9956 H       1  UNL1        0.0000
     17 H           9.0205   11.6794   15.3190 H       1  UNL1        0.0000
     18 C           8.4657   11.9732    9.2503 C.ar    1  UNL1        0.0000
     19 C           7.1608   11.5592    9.4775 C.ar    1  UNL1        0.0000
     20 H           6.7991   11.4927   10.5021 H       1  UNL1        0.0000
     21 C           6.3331   11.2448    8.4142 C.ar    1  UNL1        0.0000
     22 H           5.3223   10.9150    8.6035 H       1  UNL1        0.0000
     23 C           6.8072   11.3553    7.1165 C.ar    1  UNL1        0.0000
     24 H           6.1650   11.1100    6.2833 H       1  UNL1        0.0000
     25 C           8.1066   11.7793    6.8830 C.ar    1  UNL1        0.0000
     26 H           8.4726   11.8681    5.8699 H       1  UNL1        0.0000
     27 C           8.9374   12.0836    7.9454 C.ar    1  UNL1        0.0000
     28 H           9.9552   12.4101    7.7715 H       1  UNL1        0.0000
     29 C          10.3866   13.8963   10.1539 C.ar    1  UNL1        0.0000
     30 C           9.6094   14.9185    9.6185 C.ar    1  UNL1        0.0000
     31 H           8.5624   14.7312    9.4165 H       1  UNL1        0.0000
     32 C          10.1758   16.1487    9.3432 C.ar    1  UNL1        0.0000
     33 H           9.5727   16.9393    8.9205 H       1  UNL1        0.0000
     34 C          11.5167   16.3705    9.6160 C.ar    1  UNL1        0.0000
     35 H          11.9591   17.3323    9.4023 H       1  UNL1        0.0000
     36 C          12.2883   15.3632   10.1735 C.ar    1  UNL1        0.0000
     37 H          13.3302   15.5433   10.3980 H       1  UNL1        0.0000
     38 C          11.7238   14.1321   10.4523 C.ar    1  UNL1        0.0000
     39 H          12.3122   13.3452   10.9047 H       1  UNL1        0.0000
     40 C          10.7923   11.0243   10.1795 C.3     1  UNL1        0.0000
     41 C          11.9486   10.9918    9.4056 C.2     1  UNL1        0.0000
     42 H          12.3502   11.9047    8.9937 H       1  UNL1        0.0000
     43 C          12.5587    9.7740    9.1466 C.2     1  UNL1        0.0000
     44 H          13.4571    9.7299    8.5482 H       1  UNL1        0.0000
     45 C          11.9945    8.6064    9.6377 C.2     1  UNL1        0.0000
     46 H          12.4079    7.6310    9.4445 H       1  UNL1        0.0000
     47 C          10.8461    8.7502   10.3990 C.2     1  UNL1        0.0000
@<TRIPOS>BOND
     1    26    25    1
     2    24    23    1
     3    25    23   ar
     4    25    27   ar
     5    23    21   ar
     6    28    27    1
     7    27    18   ar
     8    21    22    1
     9    21    19   ar
    10    44    43    1
    11    33    32    1
    12    42    41    1
    13    43    41    2
    14    43    45    1
    15    18    19   ar
    16    18     1    1
    17    32    34   ar
    18    32    30   ar
    19    35    34    1
    20    41    40    1
    21    31    30    1
    22    46    45    1
    23    19    20    1
    24    34    36   ar
    25    30    29   ar
    26    45    47    2
    27    29    38   ar
    28    29     1    1
    29    36    37    1
    30    36    38   ar
    31    40     1    1
    32    40     4    1
    33    47     4    1
    34    47     3    1
    35    38    39    1
    36     1     5    1
    37     5     2    1
    38    13    10    1
    39     9     6    1
    40    10     2    1
    41    10    12    1
    42    10    11    1
    43     7     6    1
    44     2     6    1
    45     2    14    1
    46     6     8    1
    47    14    15    1
    48    14    17    1
    49    14    16    1
