@<TRIPOS>MOLECULE
1,2
 22 22 0 0 0
SMALL
GASTEIGER

@<TRIPOS>ATOM
      1 N           0.4641    0.9241    2.5691 N.pl3   1  UNL1       -0.3358
      2 C          -1.3433    2.3660    0.9423 C.3     1  UNL1       -0.0219
      3 H          -1.7292    1.3355    0.8608 H       1  UNL1        0.0317
      4 H          -1.9000    2.9947    0.2392 H       1  UNL1        0.0317
      5 C           0.0925    2.4045    0.6470 C.ar    1  UNL1       -0.0261
      6 C           1.0089    1.6585    1.4276 C.ar    1  UNL1        0.0324
      7 C           2.3590    1.6577    1.1236 C.ar    1  UNL1       -0.0404
      8 H           3.0534    1.0672    1.7036 H       1  UNL1        0.0636
      9 C           2.8501    2.4308    0.0823 C.ar    1  UNL1       -0.0600
     10 H           3.9057    2.4233   -0.1413 H       1  UNL1        0.0618
     11 C           1.9785    3.2175   -0.6528 C.ar    1  UNL1       -0.0614
     12 H           2.3567    3.8371   -1.4525 H       1  UNL1        0.0618
     13 C           0.6265    3.1982   -0.3794 C.ar    1  UNL1       -0.0568
     14 H          -0.0477    3.8065   -0.9666 H       1  UNL1        0.0621
     15 C           0.2857   -0.4757    2.1688 C.3     1  UNL1        0.0004
     16 H           1.2469   -0.9337    1.8986 H       1  UNL1        0.0428
     17 H          -0.3723   -0.5312    1.3024 H       1  UNL1        0.0428
     18 H          -0.1547   -1.0451    2.9851 H       1  UNL1        0.0428
     19 C           1.3345    0.9755    3.7516 C.3     1  UNL1        0.0004
     20 H           0.8136    0.5147    4.5937 H       1  UNL1        0.0428
     21 H           1.5614    2.0163    3.9963 H       1  UNL1        0.0428
     22 H           2.2762    0.4299    3.6034 H       1  UNL1        0.0428
@<TRIPOS>BOND
     1    12    11    1
     2    14    13    1
     3    11    13   ar
     4    11     9   ar
     5    13     5   ar
     6    10     9    1
     7     9     7   ar
     8     4     2    1
     9     5     2    1
    10     5     6   ar
    11     3     2    1
    12     7     6   ar
    13     7     8    1
    14    17    15    1
    15     6     1    1
    16    16    15    1
    17    15     1    1
    18    15    18    1
    19     1    19    1
    20    22    19    1
    21    19    21    1
    22    19    20    1
