@<TRIPOS>MOLECULE
1
 31 34 0 0 0
SMALL
GASTEIGER

@<TRIPOS>ATOM
      1 N           4.6184    0.7038    5.6530 N.pl3   1  UNL1       -0.2441
      2 C           2.9621    2.1656    6.5658 C.3     1  UNL1        0.0491
      3 C           3.6638    3.4196    6.4442 C.3     1  UNL1        0.0271
      4 C           5.0390    3.7256    6.3516 C.3     1  UNL1       -0.0040
      5 H           5.7912    2.9405    6.3818 H       1  UNL1        0.0358
      6 C           5.4381    5.0496    6.3876 C.2     1  UNL1       -0.0794
      7 H           6.4919    5.2879    6.3324 H       1  UNL1        0.0575
      8 C           4.5148    6.0853    6.5391 C.2     1  UNL1       -0.0651
      9 H           4.8629    7.1083    6.5662 H       1  UNL1        0.0615
     10 C           3.1722    5.8062    6.7144 C.2     1  UNL1       -0.0577
     11 H           2.4705    6.6066    6.9070 H       1  UNL1        0.0621
     12 C           2.7386    4.4887    6.6764 C.2     1  UNL1       -0.0314
     13 C           1.4498    3.9062    6.9125 C.ar    1  UNL1       -0.0174
     14 C           0.2084    4.4879    7.1386 C.ar    1  UNL1       -0.0540
     15 H           0.1071    5.5639    7.1821 H       1  UNL1        0.0624
     16 C          -0.8929    3.6749    7.3063 C.ar    1  UNL1       -0.0612
     17 H          -1.8652    4.1100    7.4875 H       1  UNL1        0.0618
     18 C          -0.7641    2.2877    7.2325 C.ar    1  UNL1       -0.0614
     19 H          -1.6444    1.6710    7.3489 H       1  UNL1        0.0618
     20 C           0.4577    1.6900    7.0117 C.ar    1  UNL1       -0.0573
     21 H           0.5209    0.6141    6.9327 H       1  UNL1        0.0621
     22 C           1.5955    2.4882    6.8675 C.ar    1  UNL1       -0.0294
     23 C           3.5639    0.8767    6.5098 C.3     1  UNL1        0.1099
     24 C           3.1402   -0.1929    7.3323 C.2     1  UNL1       -0.0558
     25 H           2.3232   -0.0284    8.0157 H       1  UNL1        0.0595
     26 C           3.8031   -1.3899    7.3028 C.2     1  UNL1       -0.0623
     27 H           3.4972   -2.2055    7.9420 H       1  UNL1        0.0616
     28 C           4.9057   -1.5374    6.4530 C.2     1  UNL1       -0.0466
     29 H           5.4623   -2.4594    6.4153 H       1  UNL1        0.0630
     30 C           5.2596   -0.4701    5.6612 C.2     1  UNL1        0.0125
     31 H           6.1075   -0.5459    4.9866 H       1  UNL1        0.0797
@<TRIPOS>BOND
     1    31    30    1
     2     1    30    1
     3     1    23    1
     4    30    28    2
     5     7     6    1
     6     4     5    1
     7     4     6    1
     8     4     3    1
     9     6     8    2
    10    29    28    1
    11     3     2    1
    12     3    12    1
    13    28    26    1
    14    23     2    1
    15    23    24    1
    16     8     9    1
    17     8    10    1
    18     2    22    1
    19    12    10    2
    20    12    13    1
    21    10    11    1
    22    22    13   ar
    23    22    20   ar
    24    13    14   ar
    25    21    20    1
    26    20    18   ar
    27    14    15    1
    28    14    16   ar
    29    18    16   ar
    30    18    19    1
    31    26    24    2
    32    26    27    1
    33    16    17    1
    34    24    25    1
