@<TRIPOS>MOLECULE
1,5
 33 33 0 0 0
SMALL
GASTEIGER

@<TRIPOS>ATOM
      1 N           7.1383    2.7614    3.0020 N.pl3   1  UNL1       -0.2193
      2 C           6.3615    1.7287    3.0670 C.2     1  UNL1        0.0248
      3 C           5.0902    1.8271    3.7241 C.2     1  UNL1       -0.0577
      4 H           4.4932    0.9129    3.7111 H       1  UNL1        0.0594
      5 C           4.6701    2.9527    4.3525 C.3     1  UNL1        0.0070
      6 C           6.7347    0.3835    2.5094 C.3     1  UNL1       -0.0249
      7 H           6.0473    0.1148    1.7077 H       1  UNL1        0.0290
      8 H           6.6408   -0.3710    3.2894 H       1  UNL1        0.0290
      9 H           7.7523    0.3765    2.1250 H       1  UNL1        0.0290
     10 C           3.3208    2.8834    5.0085 C.3     1  UNL1       -0.0544
     11 H           2.8968    1.8754    4.9618 H       1  UNL1        0.0239
     12 H           2.6269    3.5664    4.5165 H       1  UNL1        0.0239
     13 H           3.3900    3.1822    6.0538 H       1  UNL1        0.0239
     14 C           8.4094    2.7082    2.4094 C.ar    1  UNL1        0.0591
     15 C           8.5736    2.8217    1.0249 C.ar    1  UNL1       -0.0270
     16 C           9.8614    2.8528    0.5086 C.ar    1  UNL1       -0.0541
     17 H           9.9928    2.9500   -0.5602 H       1  UNL1        0.0623
     18 C          10.9784    2.7591    1.3263 C.ar    1  UNL1       -0.0498
     19 C          10.7909    2.6221    2.6964 C.ar    1  UNL1       -0.0541
     20 H          11.6523    2.5360    3.3441 H       1  UNL1        0.0623
     21 C           9.5229    2.5922    3.2521 C.ar    1  UNL1       -0.0270
     22 C           7.3787    2.9033    0.1198 C.3     1  UNL1       -0.0379
     23 H           6.9802    1.9061   -0.0724 H       1  UNL1        0.0278
     24 H           7.6497    3.3454   -0.8367 H       1  UNL1        0.0278
     25 H           6.5826    3.4956    0.5711 H       1  UNL1        0.0278
     26 C          12.3608    2.7805    0.7461 C.3     1  UNL1       -0.0397
     27 H          13.0488    3.3073    1.4040 H       1  UNL1        0.0278
     28 H          12.3666    3.2610   -0.2294 H       1  UNL1        0.0278
     29 H          12.7305    1.7620    0.6233 H       1  UNL1        0.0278
     30 C           9.2987    2.4355    4.7251 C.3     1  UNL1       -0.0379
     31 H           8.6011    3.2026    5.0843 H       1  UNL1        0.0278
     32 H          10.2358    2.5071    5.2717 H       1  UNL1        0.0278
     33 H           8.8499    1.4642    4.9373 H       1  UNL1        0.0278
@<TRIPOS>BOND
     1    24    22    1
     2    17    16    1
     3    28    26    1
     4    23    22    1
     5    22    25    1
     6    22    15    1
     7    16    15   ar
     8    16    18   ar
     9    29    26    1
    10    26    18    1
    11    26    27    1
    12    15    14   ar
    13    18    19   ar
    14     7     6    1
    15     9     6    1
    16    14     1    1
    17    14    21   ar
    18     6     2    1
    19     6     8    1
    20    19    21   ar
    21    19    20    1
    22     1     2    1
    23     2     3    2
    24    21    30    1
    25     4     3    1
    26     3     5    1
    27     5    10    1
    28    12    10    1
    29    30    33    1
    30    30    31    1
    31    30    32    1
    32    11    10    1
    33    10    13    1
