@<TRIPOS>MOLECULE
1,2
 20 21 0 0 0
SMALL
GASTEIGER

@<TRIPOS>ATOM
      1 N           3.2340   13.5802   10.6142 N.pl3   1  UNL1       -0.2400
      2 C           3.8293   15.9954    9.7254 C.ar    1  UNL1       -0.0119
      3 C           2.4571   15.6505    9.7607 C.ar    1  UNL1       -0.0081
      4 C           2.1545   14.3118   10.2484 C.3     1  UNL1        0.1273
      5 C           4.1350   17.2852    9.2884 C.ar    1  UNL1       -0.0537
      6 H           5.1687   17.5948    9.2478 H       1  UNL1        0.0624
      7 C           3.1572   18.1846    8.9046 C.ar    1  UNL1       -0.0612
      8 H           3.4327   19.1764    8.5723 H       1  UNL1        0.0618
      9 C           1.8186   17.8202    8.9417 C.ar    1  UNL1       -0.0614
     10 H           1.0534   18.5211    8.6396 H       1  UNL1        0.0618
     11 C           1.4697   16.5568    9.3682 C.ar    1  UNL1       -0.0555
     12 H           0.4248   16.2810    9.3906 H       1  UNL1        0.0621
     13 C           0.8658   13.7862   10.3723 C.2     1  UNL1       -0.0520
     14 H           0.0139   14.3731   10.0698 H       1  UNL1        0.0598
     15 C           0.6797   12.5179   10.8829 C.2     1  UNL1       -0.0620
     16 H          -0.3137   12.1051   10.9800 H       1  UNL1        0.0616
     17 C           1.7952   11.7909   11.2762 C.2     1  UNL1       -0.0466
     18 H           1.7069   10.8008   11.6940 H       1  UNL1        0.0630
     19 C           3.0405   12.3680   11.1215 C.2     1  UNL1        0.0129
     20 H           3.9262   11.8357   11.4247 H       1  UNL1        0.0798
@<TRIPOS>BOND
     1     8     7    1
     2    10     9    1
     3     7     9   ar
     4     7     5   ar
     5     9    11   ar
     6     6     5    1
     7     5     2   ar
     8    11    12    1
     9    11     3   ar
    10     2     3   ar
    11     3     4    1
    12    14    13    1
    13     4    13    1
    14     4     1    1
    15    13    15    2
    16     1    19    1
    17    15    16    1
    18    15    17    1
    19    19    17    2
    20    19    20    1
    21    17    18    1
