@<TRIPOS>MOLECULE
2,3
 52 54 0 0 0
SMALL
GASTEIGER

@<TRIPOS>ATOM
      1 SI          3.3536    4.4568    3.5417 Si      1  UNL1        0.0000
      2 N           2.5148    3.0185    3.0338 N.2     1  UNL1        0.0000
      3 C           2.0133    2.5531    1.9781 C.2     1  UNL1        0.0000
      4 C           2.1838    3.0452    0.5844 C.3     1  UNL1        0.0000
      5 H           3.1504    3.5504    0.4833 H       1  UNL1        0.0000
      6 H           2.1408    2.2031   -0.1105 H       1  UNL1        0.0000
      7 C           1.0518    4.0226    0.2547 C.3     1  UNL1        0.0000
      8 H           0.0877    3.5419    0.4037 H       1  UNL1        0.0000
      9 H           1.1297    4.3440   -0.7811 H       1  UNL1        0.0000
     10 H           1.1071    4.8964    0.8994 H       1  UNL1        0.0000
     11 C           3.9799    4.0543    5.2786 C.ar    1  UNL1        0.0000
     12 C           5.2188    4.4793    5.7456 C.ar    1  UNL1        0.0000
     13 H           5.8671    5.0442    5.0903 H       1  UNL1        0.0000
     14 C           5.6358    4.1892    7.0315 C.ar    1  UNL1        0.0000
     15 H           6.6062    4.5254    7.3702 H       1  UNL1        0.0000
     16 C           4.8191    3.4750    7.8989 C.ar    1  UNL1        0.0000
     17 C           3.5739    3.0582    7.4410 C.ar    1  UNL1        0.0000
     18 H           2.9200    2.5122    8.1079 H       1  UNL1        0.0000
     19 C           3.1627    3.3413    6.1529 C.ar    1  UNL1        0.0000
     20 H           2.1916    3.0054    5.8098 H       1  UNL1        0.0000
     21 C           5.2725    3.1431    9.2880 C.3     1  UNL1        0.0000
     22 H           5.7105    2.1441    9.3098 H       1  UNL1        0.0000
     23 H           4.4343    3.1557    9.9814 H       1  UNL1        0.0000
     24 H           6.0258    3.8487    9.6303 H       1  UNL1        0.0000
     25 C           2.0778    5.8531    3.5769 C.ar    1  UNL1        0.0000
     26 C           2.4533    7.1819    3.7583 C.ar    1  UNL1        0.0000
     27 H           3.5007    7.4254    3.8703 H       1  UNL1        0.0000
     28 C           1.5098    8.1894    3.7962 C.ar    1  UNL1        0.0000
     29 H           1.8226    9.2153    3.9346 H       1  UNL1        0.0000
     30 C           0.1554    7.9015    3.6608 C.ar    1  UNL1        0.0000
     31 C          -0.2245    6.5770    3.4898 C.ar    1  UNL1        0.0000
     32 H          -1.2708    6.3274    3.3885 H       1  UNL1        0.0000
     33 C           0.7208    5.5688    3.4493 C.ar    1  UNL1        0.0000
     34 H           0.4021    4.5416    3.3167 H       1  UNL1        0.0000
     35 C          -0.8593    9.0024    3.7103 C.3     1  UNL1        0.0000
     36 H          -1.8556    8.6226    3.4998 H       1  UNL1        0.0000
     37 H          -0.6183    9.7776    2.9841 H       1  UNL1        0.0000
     38 H          -0.8662    9.4635    4.6977 H       1  UNL1        0.0000
     39 C           4.7715    4.8091    2.3336 C.ar    1  UNL1        0.0000
     40 C           4.6832    5.8238    1.3855 C.ar    1  UNL1        0.0000
     41 H           3.7891    6.4291    1.3404 H       1  UNL1        0.0000
     42 C           5.7180    6.0707    0.5023 C.ar    1  UNL1        0.0000
     43 H           5.6237    6.8666   -0.2235 H       1  UNL1        0.0000
     44 C           6.8784    5.3083    0.5347 C.ar    1  UNL1        0.0000
     45 C           6.9714    4.2893    1.4761 C.ar    1  UNL1        0.0000
     46 H           7.8665    3.6838    1.5163 H       1  UNL1        0.0000
     47 C           5.9362    4.0458    2.3573 C.ar    1  UNL1        0.0000
     48 H           6.0338    3.2513    3.0843 H       1  UNL1        0.0000
     49 C           8.0142    5.5834   -0.4024 C.3     1  UNL1        0.0000
     50 H           7.6867    6.1854   -1.2464 H       1  UNL1        0.0000
     51 H           8.4415    4.6544   -0.7749 H       1  UNL1        0.0000
     52 H           8.8028    6.1273    0.1186 H       1  UNL1        0.0000
@<TRIPOS>BOND
     1    50    49    1
     2     9     7    1
     3    51    49    1
     4    49    52    1
     5    49    44    1
     6    43    42    1
     7     6     4    1
     8     7     8    1
     9     7     4    1
    10     7    10    1
    11     5     4    1
    12    42    44   ar
    13    42    40   ar
    14    44    45   ar
    15     4     3    1
    16    41    40    1
    17    40    39   ar
    18    45    46    1
    19    45    47   ar
    20     3     2    2
    21    39    47   ar
    22    39     1    1
    23    47    48    1
    24    37    35    1
    25     2     1    1
    26    34    33    1
    27    32    31    1
    28    33    31   ar
    29    33    25   ar
    30    31    30   ar
    31    36    35    1
    32     1    25    1
    33     1    11    1
    34    25    26   ar
    35    30    35    1
    36    30    28   ar
    37    35    38    1
    38    26    28   ar
    39    26    27    1
    40    28    29    1
    41    13    12    1
    42    11    12   ar
    43    11    19   ar
    44    12    14   ar
    45    20    19    1
    46    19    17   ar
    47    14    15    1
    48    14    16   ar
    49    17    16   ar
    50    17    18    1
    51    16    21    1
    52    21    22    1
    53    21    24    1
    54    21    23    1
