@<TRIPOS>MOLECULE
1,2
 14 14 0 0 0
SMALL
GASTEIGER

@<TRIPOS>ATOM
      1 N           5.0860    2.9998   11.2780 N.pl3   1  UNL1       -0.2407
      2 C           4.9204    5.5244   11.3231 C.2     1  UNL1       -0.0635
      3 H           4.7775    6.6105   11.3570 H       1  UNL1        0.0615
      4 C           6.0048    5.0583   10.6592 C.2     1  UNL1       -0.0526
      5 H           6.7430    5.6640   10.1489 H       1  UNL1        0.0598
      6 C           6.1059    3.6378   10.6278 C.3     1  UNL1        0.1196
      7 C           7.1166    2.9173    9.9746 C.2     1  UNL1       -0.0526
      8 H           7.9096    3.4640    9.4876 H       1  UNL1        0.0598
      9 C           7.0809    1.5450    9.9591 C.2     1  UNL1       -0.0620
     10 H           7.8488    0.9733    9.4605 H       1  UNL1        0.0616
     11 C           6.0207    0.9035   10.6035 C.2     1  UNL1       -0.0466
     12 H           5.9471   -0.1719   10.6103 H       1  UNL1        0.0630
     13 C           5.0660    1.6632   11.2414 C.2     1  UNL1        0.0128
     14 H           4.2424    1.1851   11.7550 H       1  UNL1        0.0798
@<TRIPOS>BOND
     1    10     9    1
     2     8     7    1
     3     9     7    2
     4     9    11    1
     5     7     6    1
     6     5     4    1
     7    11    12    1
     8    11    13    2
     9     6     4    1
    10     6     1    1
    11     4     2    2
    12    13     1    1
    13    13    14    1
    14     2     3    1
