@<TRIPOS>MOLECULE
3,4
 26 25 0 0 0
SMALL
GASTEIGER

@<TRIPOS>ATOM
      1 SI          0.8656   -0.0094    5.3089 Si      1  UNL1        0.0000
      2 SI          2.7334   -1.1856    3.1380 Si      1  UNL1        0.0000
      3 N           1.7228    0.0368    3.8250 N.3     1  UNL1        0.0000
      4 C           3.2088   -0.0883    1.6566 C.3     1  UNL1        0.0000
      5 H           2.8385   -0.4502    0.6997 H       1  UNL1        0.0000
      6 H           4.2750    0.1122    1.5602 H       1  UNL1        0.0000
      7 C           1.9937    0.2843    6.8362 C.3     1  UNL1        0.0000
      8 H           2.8613   -0.3669    6.8075 H       1  UNL1        0.0000
      9 H           1.4604    0.0820    7.7602 H       1  UNL1        0.0000
     10 H           2.3524    1.3082    6.8830 H       1  UNL1        0.0000
     11 C          -0.4591    1.3777    5.2938 C.3     1  UNL1        0.0000
     12 H          -0.1401    2.2140    4.6763 H       1  UNL1        0.0000
     13 H          -0.6492    1.7526    6.2951 H       1  UNL1        0.0000
     14 H          -1.4042    1.0154    4.9017 H       1  UNL1        0.0000
     15 C          -0.0262   -1.6742    5.6102 C.3     1  UNL1        0.0000
     16 H          -0.6293   -1.9644    4.7565 H       1  UNL1        0.0000
     17 H          -0.6792   -1.6171    6.4751 H       1  UNL1        0.0000
     18 H           0.6916   -2.4668    5.7923 H       1  UNL1        0.0000
     19 C           1.8551   -2.8005    2.6013 C.3     1  UNL1        0.0000
     20 H           1.4264   -3.3046    3.4598 H       1  UNL1        0.0000
     21 H           2.5537   -3.4854    2.1317 H       1  UNL1        0.0000
     22 H           1.0528   -2.6107    1.8958 H       1  UNL1        0.0000
     23 C           4.2215   -1.6969    4.2284 C.3     1  UNL1        0.0000
     24 H           4.7613   -0.8326    4.6005 H       1  UNL1        0.0000
     25 H           4.9210   -2.3186    3.6791 H       1  UNL1        0.0000
     26 H           3.8781   -2.2664    5.0854 H       1  UNL1        0.0000
@<TRIPOS>BOND
     1     5     4    1
     2     6     4    1
     3     4     2    1
     4    22    19    1
     5    21    19    1
     6    19     2    1
     7    19    20    1
     8     2     3    1
     9     2    23    1
    10    25    23    1
    11     3     1    1
    12    23    24    1
    13    23    26    1
    14    12    11    1
    15    16    15    1
    16    14    11    1
    17    11     1    1
    18    11    13    1
    19     1    15    1
    20     1     7    1
    21    15    18    1
    22    15    17    1
    23     8     7    1
    24     7    10    1
    25     7     9    1
