@<TRIPOS>MOLECULE
2,4
 27 28 0 0 0
SMALL
GASTEIGER

@<TRIPOS>ATOM
      1 F           2.4114    0.3717   11.9186 F       1  UNL1       -0.2051
      2 N           2.5283    3.4207   14.8416 N.3     1  UNL1       -0.2379
      3 H           3.3934    3.7338   15.2793 H       1  UNL1        0.1421
      4 C           0.3564    2.6809   13.9150 C.ar    1  UNL1       -0.0093
      5 C          -0.8921    2.2892   13.4350 C.ar    1  UNL1       -0.0535
      6 H          -1.7668    2.8132   13.7899 H       1  UNL1        0.0624
      7 C          -1.0369    1.2701   12.5146 C.ar    1  UNL1       -0.0585
      8 H          -2.0205    0.9847   12.1680 H       1  UNL1        0.0619
      9 C           0.0794    0.6195   11.9993 C.ar    1  UNL1       -0.0261
     10 H          -0.0102   -0.1501   11.2484 H       1  UNL1        0.0646
     11 C           1.3222    0.9839   12.4592 C.ar    1  UNL1        0.1293
     12 C           1.4821    1.9680   13.4365 C.ar    1  UNL1        0.0235
     13 C           2.7072    2.4106   14.0368 C.3     1  UNL1        0.1140
     14 C           4.0519    1.8608   13.7984 C.ar    1  UNL1       -0.0164
     15 C           5.0335    2.7439   13.3475 C.ar    1  UNL1       -0.0561
     16 H           4.7622    3.7738   13.1566 H       1  UNL1        0.0621
     17 C           6.3254    2.3174   13.1168 C.ar    1  UNL1       -0.0614
     18 H           7.0692    3.0122   12.7545 H       1  UNL1        0.0618
     19 C           6.6579    0.9933   13.3500 C.ar    1  UNL1       -0.0615
     20 H           7.6649    0.6461   13.1704 H       1  UNL1        0.0618
     21 C           5.6970    0.1181   13.8194 C.ar    1  UNL1       -0.0585
     22 H           5.9602   -0.9121   14.0143 H       1  UNL1        0.0620
     23 C           4.3906    0.5295   14.0541 C.ar    1  UNL1       -0.0451
     24 C           3.4072   -0.4622   14.5993 C.3     1  UNL1       -0.0394
     25 H           2.4580    0.0078   14.8421 H       1  UNL1        0.0278
     26 H           3.8081   -0.9351   15.4959 H       1  UNL1        0.0278
     27 H           3.2228   -1.2438   13.8633 H       1  UNL1        0.0278
@<TRIPOS>BOND
     1    10     9    1
     2     1    11    1
     3     9    11   ar
     4     9     7   ar
     5     8     7    1
     6    11    12   ar
     7     7     5   ar
     8    18    17    1
     9    17    15   ar
    10    17    19   ar
    11    16    15    1
    12    20    19    1
    13    15    14   ar
    14    19    21   ar
    15     5     6    1
    16     5     4   ar
    17    12     4   ar
    18    12    13    1
    19    14    13    1
    20    14    23   ar
    21    21    22    1
    22    21    23   ar
    23    27    24    1
    24    13     2    1
    25    23    24    1
    26    24    25    1
    27    24    26    1
    28     2     3    1
