@<TRIPOS>MOLECULE
7,8
 29 29 0 0 0
SMALL
GASTEIGER

@<TRIPOS>ATOM
      1 C           6.3689    7.0705    6.2852 C.ar    1  UNL1        0.0000
      2 C           7.1711    8.1056    6.7280 C.ar    1  UNL1        0.0000
      3 C           7.8962    7.9797    7.9024 C.ar    1  UNL1        0.0000
      4 C           7.8237    6.8020    8.6291 C.ar    1  UNL1        0.0000
      5 C           7.0342    5.7566    8.1910 C.ar    1  UNL1        0.0000
      6 C           6.2915    5.8840    7.0163 C.ar    1  UNL1        0.0000
      7 N           5.5351    4.8110    6.5358 N.2     1  UNL1        0.0000
      8 C           4.4030    4.3677    6.9628 C.2     1  UNL1        0.0000
      9 C           3.6632    5.0370    8.0636 C.3     1  UNL1        0.0000
     10 SI          2.7296    6.6025    7.4170 Si      1  UNL1        0.0000
     11 C           3.6063    8.1736    8.0643 C.3     1  UNL1        0.0000
     12 C           0.9699    6.6104    8.1624 C.3     1  UNL1        0.0000
     13 C           2.6500    6.6026    5.5113 C.3     1  UNL1        0.0000
     14 H           5.8030    7.1682    5.3692 H       1  UNL1        0.0000
     15 H           7.2283    9.0174    6.1513 H       1  UNL1        0.0000
     16 H           8.5184    8.7927    8.2454 H       1  UNL1        0.0000
     17 H           8.3904    6.6936    9.5424 H       1  UNL1        0.0000
     18 H           6.9961    4.8255    8.7382 H       1  UNL1        0.0000
     19 H           2.9466    4.3461    8.5070 H       1  UNL1        0.0000
     20 H           4.3603    5.3697    8.8392 H       1  UNL1        0.0000
     21 H           4.6316    8.2481    7.7164 H       1  UNL1        0.0000
     22 H           3.0818    9.0672    7.7394 H       1  UNL1        0.0000
     23 H           3.6284    8.1893    9.1505 H       1  UNL1        0.0000
     24 H           0.4336    7.5006    7.8507 H       1  UNL1        0.0000
     25 H           0.3795    5.7529    7.8574 H       1  UNL1        0.0000
     26 H           1.0029    6.6158    9.2477 H       1  UNL1        0.0000
     27 H           3.5439    6.1470    5.0818 H       1  UNL1        0.0000
     28 H           1.7943    6.0396    5.1487 H       1  UNL1        0.0000
     29 H           2.5657    7.6120    5.1193 H       1  UNL1        0.0000
@<TRIPOS>BOND
     1    27    13    1
     2    29    13    1
     3    28    13    1
     4    14     1    1
     5    13    10    1
     6    15     2    1
     7     1     2   ar
     8     1     6   ar
     9     7     8    2
    10     7     6    1
    11     2     3   ar
    12     8     9    1
    13     6     5   ar
    14    10     9    1
    15    10    11    1
    16    10    12    1
    17    21    11    1
    18    22    11    1
    19    24    12    1
    20    25    12    1
    21     3    16    1
    22     3     4   ar
    23     9    19    1
    24     9    20    1
    25    11    23    1
    26    12    26    1
    27     5     4   ar
    28     5    18    1
    29     4    17    1
