@<TRIPOS>MOLECULE
2,20
 37 38 0 0 0
SMALL
GASTEIGER

@<TRIPOS>ATOM
      1 P          -0.0982   15.2944   33.7620 P.3     1  UNL1       -0.0475
      2 N           0.1998   12.4232   33.4094 N.3     1  UNL1       -0.2209
      3 C          -0.5881   15.6825   31.9578 C.3     1  UNL1       -0.0148
      4 H          -0.5676   14.7682   31.3605 H       1  UNL1        0.0352
      5 C          -1.9842   16.2988   31.9080 C.3     1  UNL1       -0.0459
      6 H          -1.9960   17.1974   32.5303 H       1  UNL1        0.0271
      7 H          -2.7200   15.6042   32.3226 H       1  UNL1        0.0271
      8 C          -2.3576   16.6636   30.4734 C.3     1  UNL1       -0.0525
      9 H          -2.3872   15.7562   29.8637 H       1  UNL1        0.0265
     10 H          -3.3535   17.1118   30.4514 H       1  UNL1        0.0265
     11 C          -1.3356   17.6333   29.8876 C.3     1  UNL1       -0.0530
     12 H          -1.5972   17.8727   28.8543 H       1  UNL1        0.0265
     13 H          -1.3511   18.5625   30.4617 H       1  UNL1        0.0265
     14 C           0.0648   17.0302   29.9444 C.3     1  UNL1       -0.0525
     15 H           0.7934   17.7402   29.5463 H       1  UNL1        0.0265
     16 H           0.0981   16.1332   29.3197 H       1  UNL1        0.0265
     17 C           0.4320   16.6614   31.3796 C.3     1  UNL1       -0.0459
     18 H           1.4305   16.2167   31.4067 H       1  UNL1        0.0271
     19 H           0.4546   17.5627   31.9974 H       1  UNL1        0.0271
     20 C           0.1779   13.6460   33.9227 C.3     1  UNL1        0.1122
     21 C          -0.5580   11.8508   32.3069 C.3     1  UNL1        0.0265
     22 H          -0.5994   10.7728   32.5220 H       1  UNL1        0.0477
     23 C          -1.9963   12.3708   32.2251 C.3     1  UNL1       -0.0360
     24 H          -2.5019   12.1852   33.1744 H       1  UNL1        0.0281
     25 H          -1.9869   13.4469   32.0633 H       1  UNL1        0.0281
     26 C          -2.7462   11.6867   31.0866 C.3     1  UNL1       -0.0516
     27 H          -2.8181   10.6155   31.2906 H       1  UNL1        0.0266
     28 H          -3.7611   12.0850   31.0271 H       1  UNL1        0.0266
     29 C          -2.0235   11.8999   29.7601 C.3     1  UNL1       -0.0530
     30 H          -2.5682   11.4033   28.9545 H       1  UNL1        0.0265
     31 H          -1.9912   12.9678   29.5324 H       1  UNL1        0.0265
     32 C          -0.6010   11.3543   29.8401 C.3     1  UNL1       -0.0516
     33 H          -0.0833   11.5191   28.8926 H       1  UNL1        0.0266
     34 H          -0.6369   10.2770   30.0192 H       1  UNL1        0.0266
     35 C           0.1701   12.0298   30.9688 C.3     1  UNL1       -0.0360
     36 H           1.1695   11.6048   31.0598 H       1  UNL1        0.0281
     37 H           0.2827   13.0938   30.7551 H       1  UNL1        0.0281
@<TRIPOS>BOND
     1    12    11    1
     2    33    32    1
     3    30    29    1
     4    16    14    1
     5    31    29    1
     6    15    14    1
     7    29    32    1
     8    29    26    1
     9    32    34    1
    10    32    35    1
    11     9     8    1
    12    11    14    1
    13    11    13    1
    14    11     8    1
    15    14    17    1
    16    10     8    1
    17     8     5    1
    18    37    35    1
    19    35    36    1
    20    35    21    1
    21    28    26    1
    22    26    27    1
    23    26    23    1
    24     4     3    1
    25    17    18    1
    26    17     3    1
    27    17    19    1
    28     5     3    1
    29     5     7    1
    30     5     6    1
    31     3     1    1
    32    25    23    1
    33    23    21    1
    34    23    24    1
    35    21    22    1
    36    21     2    1
    37     2    20    1
    38     1    20    1
