@<TRIPOS>MOLECULE
2,13
 30 30 0 0 0
SMALL
GASTEIGER

@<TRIPOS>ATOM
      1 P          -8.4915    0.1646   10.4796 P.3     1  UNL1       -0.0480
      2 N          -6.4250   -1.2590   11.6322 N.3     1  UNL1       -0.2209
      3 C          -8.1667    1.9068    9.8071 C.3     1  UNL1       -0.0204
      4 H          -7.1754    2.2015   10.1726 H       1  UNL1        0.0347
      5 C          -8.1653    1.8938    8.2807 C.3     1  UNL1       -0.0584
      6 H          -9.1342    1.5711    7.9034 H       1  UNL1        0.0236
      7 H          -7.4082    1.2129    7.8973 H       1  UNL1        0.0236
      8 H          -7.9623    2.8920    7.8936 H       1  UNL1        0.0236
      9 C          -9.2223    2.8793   10.3222 C.3     1  UNL1       -0.0584
     10 H          -9.0294    3.8839    9.9476 H       1  UNL1        0.0236
     11 H          -9.2225    2.9088   11.4089 H       1  UNL1        0.0236
     12 H         -10.2122    2.5737    9.9873 H       1  UNL1        0.0236
     13 C          -6.9605   -0.1472   11.1199 C.3     1  UNL1        0.1121
     14 C          -7.1161   -2.4893   11.9785 C.3     1  UNL1        0.0265
     15 H          -6.3886   -3.0980   12.5341 H       1  UNL1        0.0477
     16 C          -7.5495   -3.2584   10.7251 C.3     1  UNL1       -0.0360
     17 H          -6.6754   -3.4393   10.0999 H       1  UNL1        0.0281
     18 H          -8.2520   -2.6360   10.1662 H       1  UNL1        0.0281
     19 C          -8.2137   -4.5766   11.1063 C.3     1  UNL1       -0.0516
     20 H          -8.5265   -5.1032   10.2024 H       1  UNL1        0.0266
     21 H          -7.4917   -5.2092   11.6292 H       1  UNL1        0.0266
     22 C          -9.4177   -4.3291   12.0090 C.3     1  UNL1       -0.0530
     23 H          -9.8748   -5.2798   12.2914 H       1  UNL1        0.0265
     24 H         -10.1616   -3.7444   11.4645 H       1  UNL1        0.0265
     25 C          -8.9919   -3.5623   13.2568 C.3     1  UNL1       -0.0516
     26 H          -8.2852   -4.1660   13.8320 H       1  UNL1        0.0266
     27 H          -9.8598   -3.3687   13.8900 H       1  UNL1        0.0266
     28 C          -8.3363   -2.2411   12.8716 C.3     1  UNL1       -0.0360
     29 H          -9.0497   -1.6236   12.3216 H       1  UNL1        0.0281
     30 H          -8.0322   -1.6923   13.7647 H       1  UNL1        0.0281
@<TRIPOS>BOND
     1     8     5    1
     2     7     5    1
     3     6     5    1
     4     5     3    1
     5     3     4    1
     6     3     9    1
     7     3     1    1
     8    10     9    1
     9    12     9    1
    10    17    16    1
    11    18    16    1
    12    20    19    1
    13     9    11    1
    14     1    13    1
    15    16    19    1
    16    16    14    1
    17    19    21    1
    18    19    22    1
    19    13     2    1
    20    24    22    1
    21     2    14    1
    22    14    15    1
    23    14    28    1
    24    22    23    1
    25    22    25    1
    26    29    28    1
    27    28    25    1
    28    28    30    1
    29    25    26    1
    30    25    27    1
