@<TRIPOS>MOLECULE
1,2
 41 42 0 0 0
SMALL
GASTEIGER

@<TRIPOS>ATOM
      1 N          14.7562    5.6267   -1.2770 N.pl3   1  UNL1       -0.2400
      2 C          15.1235    6.7798    0.9980 C.2     1  UNL1       -0.0123
      3 C          15.7234    7.4006   -0.0195 C.2     1  UNL1       -0.0514
      4 H          16.3369    8.2899    0.0765 H       1  UNL1        0.0600
      5 C          15.5740    6.8402   -1.4064 C.3     1  UNL1        0.0670
      6 C          14.7431    4.7777   -2.4143 C.ar    1  UNL1        0.0545
      7 C          15.6776    3.7336   -2.5202 C.ar    1  UNL1       -0.0276
      8 C          15.6935    2.9456   -3.6639 C.ar    1  UNL1       -0.0570
      9 H          16.4235    2.1529   -3.7426 H       1  UNL1        0.0621
     10 C          14.7859    3.1515   -4.6847 C.ar    1  UNL1       -0.0611
     11 H          14.8182    2.5403   -5.5741 H       1  UNL1        0.0618
     12 C          13.8070    4.1139   -4.5338 C.ar    1  UNL1       -0.0570
     13 H          13.0514    4.2395   -5.2958 H       1  UNL1        0.0621
     14 C          13.7569    4.9190   -3.4032 C.ar    1  UNL1       -0.0276
     15 C          12.5962    5.8555   -3.2416 C.3     1  UNL1       -0.0379
     16 H          12.5293    6.2132   -2.2170 H       1  UNL1        0.0278
     17 H          11.6771    5.3229   -3.4806 H       1  UNL1        0.0278
     18 H          12.6715    6.7042   -3.9200 H       1  UNL1        0.0278
     19 C          16.6209    3.3767   -1.4045 C.3     1  UNL1       -0.0379
     20 H          17.6186    3.1889   -1.7980 H       1  UNL1        0.0278
     21 H          16.2746    2.4560   -0.9298 H       1  UNL1        0.0278
     22 H          16.6814    4.1498   -0.6404 H       1  UNL1        0.0278
     23 C          16.9700    6.5873   -2.0044 C.3     1  UNL1       -0.0386
     24 H          16.8936    6.0723   -2.9586 H       1  UNL1        0.0254
     25 H          17.5818    5.9992   -1.3275 H       1  UNL1        0.0254
     26 H          17.4648    7.5419   -2.1644 H       1  UNL1        0.0254
     27 C          14.8737    7.8946   -2.2833 C.3     1  UNL1       -0.0386
     28 H          14.8185    7.5498   -3.3115 H       1  UNL1        0.0254
     29 H          15.4398    8.8224   -2.2566 H       1  UNL1        0.0254
     30 H          13.8736    8.0859   -1.9079 H       1  UNL1        0.0254
     31 C          15.2193    7.3754    2.3412 C.ar    1  UNL1       -0.0175
     32 C          14.8119    8.6904    2.5677 C.ar    1  UNL1       -0.0540
     33 H          14.4482    9.2754    1.7354 H       1  UNL1        0.0624
     34 C          14.8521    9.2338    3.8384 C.ar    1  UNL1       -0.0612
     35 H          14.5252   10.2512    3.9983 H       1  UNL1        0.0618
     36 C          15.3120    8.4793    4.9047 C.ar    1  UNL1       -0.0617
     37 H          15.3442    8.9042    5.8971 H       1  UNL1        0.0618
     38 C          15.7313    7.1761    4.6914 C.ar    1  UNL1       -0.0612
     39 H          16.0954    6.5845    5.5189 H       1  UNL1        0.0618
     40 C          15.6783    6.6266    3.4243 C.ar    1  UNL1       -0.0540
     41 H          16.0099    5.6108    3.2573 H       1  UNL1        0.0624
@<TRIPOS>BOND
     1    11    10    1
     2    13    12    1
     3    10    12   ar
     4    10     8   ar
     5    12    14   ar
     6    18    15    1
     7     9     8    1
     8     8     7   ar
     9    17    15    1
    10    14    15    1
    11    14     6   ar
    12    28    27    1
    13    15    16    1
    14    24    23    1
    15     7     6   ar
    16     7    19    1
    17     6     1    1
    18    27    29    1
    19    27    30    1
    20    27     5    1
    21    26    23    1
    22    23     5    1
    23    23    25    1
    24    20    19    1
    25     5     1    1
    26     5     3    1
    27    19    21    1
    28    19    22    1
    29     3     4    1
    30     3     2    2
    31     2    31    1
    32    33    32    1
    33    31    32   ar
    34    31    40   ar
    35    32    34   ar
    36    41    40    1
    37    40    38   ar
    38    34    35    1
    39    34    36   ar
    40    38    36   ar
    41    38    39    1
    42    36    37    1
