@<TRIPOS>MOLECULE
5,6
 59 61 0 0 0
SMALL
GASTEIGER

@<TRIPOS>ATOM
      1 SI          4.4551   12.8253    5.5043 Si      1  UNL1        0.0000
      2 SI          3.3418   14.3856    6.9126 Si      1  UNL1        0.0000
      3 SI          3.7121   10.5915    5.9309 Si      1  UNL1        0.0000
      4 SI          6.8386   12.9274    5.7191 Si      1  UNL1        0.0000
      5 N           3.5966   13.7120    2.9405 N.2     1  UNL1        0.0000
      6 C           4.3202   12.8927    3.5746 C.2     1  UNL1        0.0000
      7 C           2.7204   14.7310    3.2223 C.ar    1  UNL1        0.0000
      8 C           3.1837   16.0572    3.2845 C.ar    1  UNL1        0.0000
      9 C           2.2591   17.0853    3.3541 C.ar    1  UNL1        0.0000
     10 H           2.6120   18.1059    3.4057 H       1  UNL1        0.0000
     11 C           0.8984   16.8274    3.3591 C.ar    1  UNL1        0.0000
     12 H           0.1917   17.6416    3.4133 H       1  UNL1        0.0000
     13 C           0.4495   15.5190    3.2928 C.ar    1  UNL1        0.0000
     14 H          -0.6120   15.3135    3.2974 H       1  UNL1        0.0000
     15 C           1.3401   14.4626    3.2190 C.ar    1  UNL1        0.0000
     16 C           4.6558   16.3390    3.2712 C.3     1  UNL1        0.0000
     17 H           4.8519   17.3703    3.5533 H       1  UNL1        0.0000
     18 H           5.0736   16.1790    2.2761 H       1  UNL1        0.0000
     19 H           5.1824   15.6789    3.9583 H       1  UNL1        0.0000
     20 C           0.8617   13.0434    3.1516 C.3     1  UNL1        0.0000
     21 H           1.4433   12.4742    2.4259 H       1  UNL1        0.0000
     22 H          -0.1896   12.9998    2.8752 H       1  UNL1        0.0000
     23 H           0.9825   12.5574    4.1192 H       1  UNL1        0.0000
     24 C           3.7362   16.2436    6.6894 C.3     1  UNL1        0.0000
     25 H           3.2531   16.6489    5.8071 H       1  UNL1        0.0000
     26 H           4.8038   16.4169    6.5913 H       1  UNL1        0.0000
     27 H           3.3924   16.8200    7.5451 H       1  UNL1        0.0000
     28 C           1.4398   14.1964    6.8395 C.3     1  UNL1        0.0000
     29 H           0.9520   14.7751    7.6195 H       1  UNL1        0.0000
     30 H           1.1394   13.1604    6.9684 H       1  UNL1        0.0000
     31 H           1.0480   14.5408    5.8877 H       1  UNL1        0.0000
     32 C           3.8792   13.9744    8.7029 C.3     1  UNL1        0.0000
     33 H           3.2999   14.5396    9.4276 H       1  UNL1        0.0000
     34 H           4.9244   14.2191    8.8649 H       1  UNL1        0.0000
     35 H           3.7511   12.9227    8.9341 H       1  UNL1        0.0000
     36 C           1.9409   10.1288    5.3710 C.3     1  UNL1        0.0000
     37 H           1.8285   10.1894    4.2935 H       1  UNL1        0.0000
     38 H           1.1991   10.7832    5.8209 H       1  UNL1        0.0000
     39 H           1.6902    9.1109    5.6613 H       1  UNL1        0.0000
     40 C           3.7810   10.2140    7.8019 C.3     1  UNL1        0.0000
     41 H           2.9840   10.7247    8.3320 H       1  UNL1        0.0000
     42 H           4.7221   10.5280    8.2414 H       1  UNL1        0.0000
     43 H           3.6690    9.1518    7.9964 H       1  UNL1        0.0000
     44 C           4.9208    9.3730    5.0808 C.3     1  UNL1        0.0000
     45 H           4.4766    8.3943    4.9206 H       1  UNL1        0.0000
     46 H           5.8268    9.2379    5.6644 H       1  UNL1        0.0000
     47 H           5.2097    9.7674    4.1081 H       1  UNL1        0.0000
     48 C           7.3382   12.4430    7.4976 C.3     1  UNL1        0.0000
     49 H           6.9691   11.4573    7.7618 H       1  UNL1        0.0000
     50 H           6.9371   13.1455    8.2195 H       1  UNL1        0.0000
     51 H           8.4167   12.4316    7.6216 H       1  UNL1        0.0000
     52 C           7.7564   11.6851    4.5756 C.3     1  UNL1        0.0000
     53 H           8.7279   12.0637    4.2674 H       1  UNL1        0.0000
     54 H           7.1759   11.4939    3.6700 H       1  UNL1        0.0000
     55 H           7.9132   10.7295    5.0681 H       1  UNL1        0.0000
     56 C           7.5959   14.6549    5.3829 C.3     1  UNL1        0.0000
     57 H           7.0877   15.4245    5.9571 H       1  UNL1        0.0000
     58 H           7.5320   14.9291    4.3342 H       1  UNL1        0.0000
     59 H           8.6472   14.6882    5.6589 H       1  UNL1        0.0000
@<TRIPOS>BOND
     1    18    16    1
     2    21    20    1
     3    22    20    1
     4     5     7    1
     5     5     6    2
     6    20    15    1
     7    20    23    1
     8    15     7   ar
     9    15    13   ar
    10     7     8   ar
    11    16     8    1
    12    16    17    1
    13    16    19    1
    14     8     9   ar
    15    13    14    1
    16    13    11   ar
    17     9    11   ar
    18     9    10    1
    19    11    12    1
    20     6     1    1
    21    54    52    1
    22    47    44    1
    23    53    52    1
    24    37    36    1
    25    58    56    1
    26    52    55    1
    27    52     4    1
    28    45    44    1
    29    44    46    1
    30    44     3    1
    31    36    39    1
    32    36    38    1
    33    36     3    1
    34    56    59    1
    35    56     4    1
    36    56    57    1
    37     1     4    1
    38     1     3    1
    39     1     2    1
    40     4    48    1
    41    25    24    1
    42    31    28    1
    43     3    40    1
    44    26    24    1
    45    24     2    1
    46    24    27    1
    47    28     2    1
    48    28    30    1
    49    28    29    1
    50     2    32    1
    51    48    51    1
    52    48    49    1
    53    48    50    1
    54    40    43    1
    55    40    42    1
    56    40    41    1
    57    32    34    1
    58    32    35    1
    59    32    33    1
    60     1     5    0
    61     1     7    0
