@<TRIPOS>MOLECULE
4,5
 53 53 0 0 0
SMALL
GASTEIGER

@<TRIPOS>ATOM
      1 SI         11.4859    6.4556    8.3962 Si      1  UNL1        0.0000
      2 SI         11.3226    6.4851    6.0339 Si      1  UNL1        0.0000
      3 SI         13.7002    6.6358    9.2464 Si      1  UNL1        0.0000
      4 N          10.1792    4.0356    9.1132 N.2     1  UNL1        0.0000
      5 C          10.6989    5.1107    9.5352 C.2     1  UNL1        0.0000
      6 C          10.0240    3.4441    7.8753 C.ar    1  UNL1        0.0000
      7 C          11.0553    2.6481    7.3504 C.ar    1  UNL1        0.0000
      8 C          10.8092    1.9112    6.2050 C.ar    1  UNL1        0.0000
      9 H          11.5996    1.2996    5.7932 H       1  UNL1        0.0000
     10 C           9.5716    1.9447    5.5840 C.ar    1  UNL1        0.0000
     11 H           9.3979    1.3640    4.6907 H       1  UNL1        0.0000
     12 C           8.5566    2.7200    6.1170 C.ar    1  UNL1        0.0000
     13 H           7.5877    2.7444    5.6376 H       1  UNL1        0.0000
     14 C           8.7613    3.4697    7.2632 C.ar    1  UNL1        0.0000
     15 C          12.3854    2.6006    8.0407 C.3     1  UNL1        0.0000
     16 H          13.0472    1.8934    7.5472 H       1  UNL1        0.0000
     17 H          12.2661    2.2936    9.0801 H       1  UNL1        0.0000
     18 H          12.8582    3.5835    8.0383 H       1  UNL1        0.0000
     19 C           7.6704    4.3227    7.8391 C.3     1  UNL1        0.0000
     20 H           6.6902    3.9569    7.5396 H       1  UNL1        0.0000
     21 H           7.7685    5.3518    7.4916 H       1  UNL1        0.0000
     22 H           7.7320    4.3382    8.9277 H       1  UNL1        0.0000
     23 C          11.9805    8.2102    5.5169 C.3     1  UNL1        0.0000
     24 H          12.0144    8.3179    4.4366 H       1  UNL1        0.0000
     25 H          12.9867    8.3737    5.8920 H       1  UNL1        0.0000
     26 H          11.3563    9.0098    5.9037 H       1  UNL1        0.0000
     27 C          12.4607    5.1833    5.2223 C.3     1  UNL1        0.0000
     28 H          12.5098    5.3299    4.1467 H       1  UNL1        0.0000
     29 H          12.0916    4.1777    5.3953 H       1  UNL1        0.0000
     30 H          13.4751    5.2345    5.6031 H       1  UNL1        0.0000
     31 C           9.6119    6.2547    5.2047 C.3     1  UNL1        0.0000
     32 H           8.8532    6.9068    5.6268 H       1  UNL1        0.0000
     33 H           9.2664    5.2309    5.3115 H       1  UNL1        0.0000
     34 H           9.6670    6.4698    4.1399 H       1  UNL1        0.0000
     35 C          15.0305    6.1849    7.9517 C.3     1  UNL1        0.0000
     36 H          16.0301    6.3382    8.3475 H       1  UNL1        0.0000
     37 H          14.9369    6.7990    7.0616 H       1  UNL1        0.0000
     38 H          14.9619    5.1459    7.6451 H       1  UNL1        0.0000
     39 C          14.0753    8.4401    9.7785 C.3     1  UNL1        0.0000
     40 H          13.3869    8.7958   10.5394 H       1  UNL1        0.0000
     41 H          13.9925    9.1120    8.9295 H       1  UNL1        0.0000
     42 H          15.0827    8.5424   10.1733 H       1  UNL1        0.0000
     43 C          14.0359    5.5322   10.7742 C.3     1  UNL1        0.0000
     44 H          14.9653    5.7887   11.2775 H       1  UNL1        0.0000
     45 H          14.0977    4.4831   10.4987 H       1  UNL1        0.0000
     46 H          13.2282    5.6320   11.4962 H       1  UNL1        0.0000
     47 C          10.5871    8.0385    9.0643 C.3     1  UNL1        0.0000
     48 H          10.5261    7.9983   10.1553 H       1  UNL1        0.0000
     49 H          11.1852    8.9175    8.8218 H       1  UNL1        0.0000
     50 C           9.1801    8.2345    8.5153 C.3     1  UNL1        0.0000
     51 H           9.2046    8.3856    7.4384 H       1  UNL1        0.0000
     52 H           8.7022    9.1009    8.9703 H       1  UNL1        0.0000
     53 H           8.5596    7.3670    8.7280 H       1  UNL1        0.0000
@<TRIPOS>BOND
     1    34    31    1
     2    28    27    1
     3    24    23    1
     4    11    10    1
     5    31    33    1
     6    31    32    1
     7    31     2    1
     8    27    29    1
     9    27    30    1
    10    27     2    1
    11    23    25    1
    12    23    26    1
    13    23     2    1
    14    10    12   ar
    15    10     8   ar
    16    13    12    1
    17     9     8    1
    18     2     1    1
    19    12    14   ar
    20     8     7   ar
    21    37    35    1
    22    14    19    1
    23    14     6   ar
    24     7     6   ar
    25     7    15    1
    26    51    50    1
    27    21    19    1
    28    20    19    1
    29    16    15    1
    30    38    35    1
    31    19    22    1
    32     6     4    1
    33    35    36    1
    34    35     3    1
    35    18    15    1
    36    15    17    1
    37     1    47    1
    38     1     3    1
    39     1     5    1
    40    50    53    1
    41    50    52    1
    42    50    47    1
    43    49    47    1
    44    41    39    1
    45    47    48    1
    46     4     5    2
    47     3    39    1
    48     3    43    1
    49    39    42    1
    50    39    40    1
    51    45    43    1
    52    43    44    1
    53    43    46    1
