@<TRIPOS>MOLECULE
3,4
 26 25 0 0 0
SMALL
GASTEIGER

@<TRIPOS>ATOM
      1 SI         14.4062   14.3243   11.5307 Si      1  UNL1        0.0000
      2 SI         13.6136   16.2371    9.2831 Si      1  UNL1        0.0000
      3 N          13.6307   14.6700    9.9903 N.3     1  UNL1        0.0000
      4 C          14.4621   12.4561   11.2266 C.3     1  UNL1        0.0000
      5 H          13.9174   11.8735   11.9714 H       1  UNL1        0.0000
      6 H          15.4767   12.0606   11.1497 H       1  UNL1        0.0000
      7 C          13.3506   14.8452   13.0498 C.3     1  UNL1        0.0000
      8 H          12.9530   15.8465   12.9299 H       1  UNL1        0.0000
      9 H          13.9487   14.8333   13.9549 H       1  UNL1        0.0000
     10 H          12.5123   14.1723   13.1972 H       1  UNL1        0.0000
     11 C          16.1307   15.1248   11.7749 C.3     1  UNL1        0.0000
     12 H          16.0461   16.1930   11.9392 H       1  UNL1        0.0000
     13 H          16.7647   14.9709   10.9083 H       1  UNL1        0.0000
     14 H          16.6356   14.6997   12.6364 H       1  UNL1        0.0000
     15 C          12.7086   16.3059    7.5896 C.3     1  UNL1        0.0000
     16 H          12.9198   15.4453    6.9624 H       1  UNL1        0.0000
     17 H          13.0365   17.1877    7.0472 H       1  UNL1        0.0000
     18 H          11.6322   16.3872    7.6976 H       1  UNL1        0.0000
     19 C          15.3678   16.9522    8.9502 C.3     1  UNL1        0.0000
     20 H          16.0704   16.1823    8.6455 H       1  UNL1        0.0000
     21 H          15.7723   17.4221    9.8401 H       1  UNL1        0.0000
     22 H          15.3464   17.7059    8.1684 H       1  UNL1        0.0000
     23 C          12.7402   17.5195   10.4117 C.3     1  UNL1        0.0000
     24 H          13.3358   17.7189   11.2966 H       1  UNL1        0.0000
     25 H          11.7650   17.1782   10.7452 H       1  UNL1        0.0000
     26 H          12.5999   18.4627    9.8931 H       1  UNL1        0.0000
@<TRIPOS>BOND
     1    16    15    1
     2    17    15    1
     3    15    18    1
     4    15     2    1
     5    22    19    1
     6    20    19    1
     7    19     2    1
     8    19    21    1
     9     2     3    1
    10     2    23    1
    11    26    23    1
    12     3     1    1
    13    23    25    1
    14    23    24    1
    15    13    11    1
    16     6     4    1
    17     4     1    1
    18     4     5    1
    19     1    11    1
    20     1     7    1
    21    11    12    1
    22    11    14    1
    23     8     7    1
    24     7    10    1
    25     7     9    1
