@<TRIPOS>MOLECULE
1,15
 24 23 0 0 0
SMALL
GASTEIGER

@<TRIPOS>ATOM
      1 N           1.1628    2.2028   10.7864 N.pl3   1  UNL1       -0.2495
      2 C          -0.1580    1.7366   11.1559 C.3     1  UNL1        0.0450
      3 C          -0.2678    0.2011   11.1249 C.3     1  UNL1       -0.0425
      4 H          -0.0227   -0.1582   10.1278 H       1  UNL1        0.0251
      5 H          -1.2814   -0.1066   11.3734 H       1  UNL1        0.0251
      6 H           0.4171   -0.2574   11.8299 H       1  UNL1        0.0251
      7 C          -1.1142    2.3027   10.0909 C.3     1  UNL1       -0.0425
      8 H          -0.7820    1.9685    9.1043 H       1  UNL1        0.0251
      9 H          -1.0876    3.3939   10.1387 H       1  UNL1        0.0251
     10 H          -2.1334    1.9598   10.2653 H       1  UNL1        0.0251
     11 C          -0.5848    2.2906   12.5288 C.3     1  UNL1       -0.0425
     12 H           0.0486    1.9021   13.3204 H       1  UNL1        0.0251
     13 H          -1.6163    2.0185   12.7433 H       1  UNL1        0.0251
     14 H          -0.4948    3.3767   12.5167 H       1  UNL1        0.0251
     15 C           3.3942    2.6542   10.6273 C.3     1  UNL1       -0.0082
     16 H           4.0356    1.9597   10.0640 H       1  UNL1        0.0329
     17 H           4.0183    3.2728   11.2869 H       1  UNL1        0.0329
     18 C           2.3495    1.8989   11.4240 C.2     1  UNL1        0.0220
     19 C           2.6004    1.1521   12.5121 C.2     1  UNL1       -0.0686
     20 H           1.8125    0.6759   13.0778 H       1  UNL1        0.0585
     21 C           3.9780    0.9378   13.0673 C.3     1  UNL1       -0.0451
     22 H           4.1039   -0.0989   13.3811 H       1  UNL1        0.0272
     23 H           4.1514    1.5698   13.9427 H       1  UNL1        0.0272
     24 H           4.7400    1.1675   12.3264 H       1  UNL1        0.0272
@<TRIPOS>BOND
     1     8     7    1
     2    16    15    1
     3     7     9    1
     4     7    10    1
     5     7     2    1
     6     4     3    1
     7    15    17    1
     8    15    18    1
     9     1     2    1
    10     1    18    1
    11     3     2    1
    12     3     5    1
    13     3     6    1
    14     2    11    1
    15    18    19    2
    16    24    21    1
    17    19    21    1
    18    19    20    1
    19    14    11    1
    20    11    13    1
    21    11    12    1
    22    21    22    1
    23    21    23    1
