@<TRIPOS>MOLECULE
2,3
 49 51 0 0 0
SMALL
GASTEIGER

@<TRIPOS>ATOM
      1 SI          3.2586    4.4727    3.5300 Si      1  UNL1        0.0000
      2 N           2.4387    3.0185    3.0314 N.3     1  UNL1        0.0000
      3 C           1.7893    2.6519    2.0140 C.3     1  UNL1        0.0000
      4 C           1.7817    3.2673    0.6646 C.3     1  UNL1        0.0000
      5 H           0.8588    3.8389    0.5603 H       1  UNL1        0.0000
      6 H           1.7785    2.4976   -0.1056 H       1  UNL1        0.0000
      7 H           2.6343    3.9343    0.5274 H       1  UNL1        0.0000
      8 C           3.8885    4.0937    5.2704 C.ar    1  UNL1        0.0000
      9 C           5.1340    4.5174    5.7218 C.ar    1  UNL1        0.0000
     10 H           5.7804    5.0685    5.0529 H       1  UNL1        0.0000
     11 C           5.5592    4.2420    7.0078 C.ar    1  UNL1        0.0000
     12 H           6.5340    4.5766    7.3353 H       1  UNL1        0.0000
     13 C           4.7453    3.5431    7.8911 C.ar    1  UNL1        0.0000
     14 C           3.4951    3.1265    7.4484 C.ar    1  UNL1        0.0000
     15 H           2.8432    2.5915    8.1260 H       1  UNL1        0.0000
     16 C           3.0749    3.3961    6.1599 C.ar    1  UNL1        0.0000
     17 H           2.0998    3.0600    5.8285 H       1  UNL1        0.0000
     18 C           5.2127    3.2286    9.2796 C.3     1  UNL1        0.0000
     19 H           5.7604    2.2850    9.2847 H       1  UNL1        0.0000
     20 H           4.3698    3.1320    9.9602 H       1  UNL1        0.0000
     21 H           5.8793    4.0044    9.6493 H       1  UNL1        0.0000
     22 C           1.9822    5.8696    3.5321 C.ar    1  UNL1        0.0000
     23 C           2.3511    7.1884    3.7850 C.ar    1  UNL1        0.0000
     24 H           3.3902    7.4199    3.9739 H       1  UNL1        0.0000
     25 C           1.4123    8.2015    3.7968 C.ar    1  UNL1        0.0000
     26 H           1.7220    9.2192    3.9923 H       1  UNL1        0.0000
     27 C           0.0694    7.9287    3.5621 C.ar    1  UNL1        0.0000
     28 C          -0.3046    6.6132    3.3173 C.ar    1  UNL1        0.0000
     29 H          -1.3439    6.3769    3.1392 H       1  UNL1        0.0000
     30 C           0.6356    5.6005    3.3024 C.ar    1  UNL1        0.0000
     31 H           0.3187    4.5805    3.1165 H       1  UNL1        0.0000
     32 C          -0.9510    9.0247    3.6005 C.3     1  UNL1        0.0000
     33 H          -1.8215    8.7660    3.0021 H       1  UNL1        0.0000
     34 H          -0.5320    9.9595    3.2338 H       1  UNL1        0.0000
     35 H          -1.2827    9.1849    4.6270 H       1  UNL1        0.0000
     36 C           4.6780    4.8204    2.3214 C.ar    1  UNL1        0.0000
     37 C           4.6092    5.8624    1.4023 C.ar    1  UNL1        0.0000
     38 H           3.7295    6.4902    1.3794 H       1  UNL1        0.0000
     39 C           5.6461    6.1110    0.5214 C.ar    1  UNL1        0.0000
     40 H           5.5662    6.9289   -0.1814 H       1  UNL1        0.0000
     41 C           6.7892    5.3231    0.5283 C.ar    1  UNL1        0.0000
     42 C           6.8641    4.2784    1.4436 C.ar    1  UNL1        0.0000
     43 H           7.7473    3.6546    1.4646 H       1  UNL1        0.0000
     44 C           5.8273    4.0336    2.3219 C.ar    1  UNL1        0.0000
     45 H           5.9116    3.2204    3.0295 H       1  UNL1        0.0000
     46 C           7.9237    5.5857   -0.4140 C.3     1  UNL1        0.0000
     47 H           8.8094    5.8953    0.1406 H       1  UNL1        0.0000
     48 H           7.6691    6.3695   -1.1229 H       1  UNL1        0.0000
     49 H           8.1781    4.6822   -0.9666 H       1  UNL1        0.0000
@<TRIPOS>BOND
     1    48    46    1
     2    49    46    1
     3    46    47    1
     4    46    41    1
     5    40    39    1
     6     6     4    1
     7    39    41   ar
     8    39    37   ar
     9     7     4    1
    10    41    42   ar
    11     5     4    1
    12     4     3    1
    13    38    37    1
    14    37    36   ar
    15    42    43    1
    16    42    44   ar
    17     3     2    1
    18    36    44   ar
    19    36     1    1
    20    44    45    1
    21    33    32    1
    22     2     1    1
    23    31    30    1
    24    29    28    1
    25    34    32    1
    26    30    28   ar
    27    30    22   ar
    28    28    27   ar
    29     1    22    1
    30     1     8    1
    31    22    23   ar
    32    27    32    1
    33    27    25   ar
    34    32    35    1
    35    23    25   ar
    36    23    24    1
    37    25    26    1
    38    10     9    1
    39     8     9   ar
    40     8    16   ar
    41     9    11   ar
    42    17    16    1
    43    16    14   ar
    44    11    12    1
    45    11    13   ar
    46    14    13   ar
    47    14    15    1
    48    13    18    1
    49    18    19    1
    50    18    21    1
    51    18    20    1
