@<TRIPOS>MOLECULE
2,4
 24 23 0 0 0
SMALL
GASTEIGER

@<TRIPOS>ATOM
      1 SI         -2.7281   -1.9065    3.6071 Si      1  UNL1        0.0000
      2 N          -0.0667    1.0272    3.1403 N.pl3   1  UNL1        0.0000
      3 N          -0.6262   -0.1512    3.2806 N.2     1  UNL1        0.0000
      4 C           1.5430    2.6501    2.9518 C.3     1  UNL1        0.0000
      5 C           1.3089    1.1855    3.1864 C.2     1  UNL1        0.0000
      6 C           2.2031    0.2251    3.4390 C.2     1  UNL1        0.0000
      7 C          -1.8998   -0.2362    3.4283 C.2     1  UNL1        0.0000
      8 C          -3.7252   -1.9474    5.2431 C.3     1  UNL1        0.0000
      9 C          -1.4178   -3.2850    3.6068 C.3     1  UNL1        0.0000
     10 C          -3.9741   -2.1762    2.1781 C.3     1  UNL1        0.0000
     11 H           2.2892    3.0612    3.6352 H       1  UNL1        0.0000
     12 H           1.9222    2.8031    1.9390 H       1  UNL1        0.0000
     13 H           3.2579    0.4383    3.4660 H       1  UNL1        0.0000
     14 H           1.8933   -0.7938    3.6009 H       1  UNL1        0.0000
     15 H          -2.4914    0.6986    3.4421 H       1  UNL1        0.0000
     16 H          -4.4604   -1.1482    5.2843 H       1  UNL1        0.0000
     17 H          -3.0783   -1.8450    6.1097 H       1  UNL1        0.0000
     18 H          -4.2627   -2.8850    5.3482 H       1  UNL1        0.0000
     19 H          -0.7296   -3.1656    4.4368 H       1  UNL1        0.0000
     20 H          -1.8704   -4.2689    3.6871 H       1  UNL1        0.0000
     21 H          -0.8324   -3.2601    2.6940 H       1  UNL1        0.0000
     22 H          -4.4742   -3.1354    2.2719 H       1  UNL1        0.0000
     23 H          -3.4811   -2.1564    1.2109 H       1  UNL1        0.0000
     24 H          -4.7441   -1.4098    2.1697 H       1  UNL1        0.0000
@<TRIPOS>BOND
     1    23    10    1
     2    12     4    1
     3    24    10    1
     4    10    22    1
     5    10     1    1
     6    21     9    1
     7     4     5    1
     8     4    11    1
     9     2     5    1
    10     2     3    1
    11     5     6    2
    12     3     7    2
    13     7    15    1
    14     7     1    1
    15     6    13    1
    16     6    14    1
    17     9     1    1
    18     9    20    1
    19     9    19    1
    20     1     8    1
    21     8    16    1
    22     8    18    1
    23     8    17    1
