@<TRIPOS>MOLECULE
2,3
 40 41 0 0 0
SMALL
GASTEIGER

@<TRIPOS>ATOM
      1 S          -1.2476   16.0533    5.6000 S.2     1  UNL1       -0.0993
      2 N           0.5333   13.0111    3.5502 N.pl3   1  UNL1       -0.2449
      3 C          -0.3501   13.6714    6.2433 C.ar    1  UNL1       -0.0053
      4 C          -0.7192   14.3534    7.4478 C.ar    1  UNL1       -0.0467
      5 H          -0.6397   13.9214    8.4361 H       1  UNL1        0.0629
      6 C          -1.2052   15.6076    7.2622 C.ar    1  UNL1       -0.0234
      7 H          -1.5533   16.3085    7.9973 H       1  UNL1        0.0693
      8 C          -0.5881   14.4769    5.1714 C.ar    1  UNL1        0.0165
      9 C          -0.3677   14.1448    3.7267 C.3     1  UNL1        0.0632
     10 H          -1.3557   13.9456    3.2575 H       1  UNL1        0.0537
     11 H           0.0249   15.0410    3.2126 H       1  UNL1        0.0537
     12 C           0.6750   12.6795    2.1917 C.ar    1  UNL1        0.0550
     13 C           1.6678   13.3074    1.4045 C.ar    1  UNL1       -0.0220
     14 C           1.8116   12.9697    0.0683 C.ar    1  UNL1       -0.0565
     15 H           2.5629   13.4632   -0.5313 H       1  UNL1        0.0621
     16 C           1.0004   12.0204   -0.5222 C.ar    1  UNL1       -0.0611
     17 H           1.1207   11.7713   -1.5668 H       1  UNL1        0.0618
     18 C           0.0235   11.4043    0.2352 C.ar    1  UNL1       -0.0565
     19 H          -0.6220   10.6752   -0.2340 H       1  UNL1        0.0621
     20 C          -0.1577   11.7206    1.5735 C.ar    1  UNL1       -0.0220
     21 C           2.5682   14.3672    2.0024 C.3     1  UNL1       -0.0197
     22 H           2.4313   14.3257    3.0885 H       1  UNL1        0.0344
     23 C           2.1692   15.7581    1.4982 C.3     1  UNL1       -0.0586
     24 H           2.3078   15.8222    0.4206 H       1  UNL1        0.0235
     25 H           2.7798   16.5265    1.9705 H       1  UNL1        0.0235
     26 H           1.1248   15.9689    1.7140 H       1  UNL1        0.0235
     27 C           4.0473   14.1337    1.6770 C.3     1  UNL1       -0.0586
     28 H           4.3559   13.1211    1.9264 H       1  UNL1        0.0235
     29 H           4.6677   14.8357    2.2327 H       1  UNL1        0.0235
     30 H           4.2412   14.2933    0.6190 H       1  UNL1        0.0235
     31 C          -1.2721   11.0426    2.3400 C.3     1  UNL1       -0.0197
     32 H          -1.1989   11.3434    3.3982 H       1  UNL1        0.0344
     33 C          -1.1515    9.5179    2.2785 C.3     1  UNL1       -0.0586
     34 H          -1.2898    9.1512    1.2634 H       1  UNL1        0.0235
     35 H          -1.9070    9.0579    2.9128 H       1  UNL1        0.0235
     36 H          -0.1689    9.2050    2.6276 H       1  UNL1        0.0235
     37 C          -2.6359   11.4887    1.8062 C.3     1  UNL1       -0.0586
     38 H          -2.7303   12.5712    1.8585 H       1  UNL1        0.0235
     39 H          -3.4362   11.0452    2.3953 H       1  UNL1        0.0235
     40 H          -2.7628   11.1866    0.7684 H       1  UNL1        0.0235
@<TRIPOS>BOND
     1    17    16    1
     2    15    14    1
     3    16    14   ar
     4    16    18   ar
     5    19    18    1
     6    14    13   ar
     7    18    20   ar
     8    24    23    1
     9    30    27    1
    10    40    37    1
    11    34    33    1
    12    13    21    1
    13    13    12   ar
    14    23    26    1
    15    23    25    1
    16    23    21    1
    17    20    12   ar
    18    20    31    1
    19    27    28    1
    20    27    21    1
    21    27    29    1
    22    37    38    1
    23    37    31    1
    24    37    39    1
    25    21    22    1
    26    12     2    1
    27    33    31    1
    28    33    36    1
    29    33    35    1
    30    31    32    1
    31    11     9    1
    32    10     9    1
    33     2     9    1
    34     9     8    1
    35     8     1   ar
    36     8     3   ar
    37     1     6   ar
    38     3     4   ar
    39     6     4   ar
    40     6     7    1
    41     4     5    1
