@<TRIPOS>MOLECULE
3,4
 31 31 0 0 0
SMALL
GASTEIGER

@<TRIPOS>ATOM
      1 SI          0.7154    1.0582    3.5066 Si      1  UNL1        0.0000
      2 N           4.1346    1.7491    4.6208 N.pl3   1  UNL1        0.0000
      3 N           1.7527    1.6231    4.7450 N.2     1  UNL1        0.0000
      4 C           2.9365    1.8013    5.1747 C.2     1  UNL1        0.0000
      5 C           4.3735    1.5059    3.2166 C.3     1  UNL1        0.0000
      6 C           5.2898    2.1023    5.4087 C.3     1  UNL1        0.0000
      7 C           0.7617    2.1583    1.9424 C.3     1  UNL1        0.0000
      8 C          -1.0214    1.0990    4.2901 C.3     1  UNL1        0.0000
      9 C           1.2044   -0.7192    3.0258 C.ar    1  UNL1        0.0000
     10 C           0.5096   -1.4190    2.0440 C.ar    1  UNL1        0.0000
     11 C           0.8565   -2.7143    1.7045 C.ar    1  UNL1        0.0000
     12 C           1.9118   -3.3403    2.3462 C.ar    1  UNL1        0.0000
     13 C           2.6147   -2.6618    3.3271 C.ar    1  UNL1        0.0000
     14 C           2.2608   -1.3666    3.6582 C.ar    1  UNL1        0.0000
     15 H           3.4437    1.2085    2.7403 H       1  UNL1        0.0000
     16 H           5.1082    0.7056    3.0969 H       1  UNL1        0.0000
     17 H           4.7557    2.4084    2.7306 H       1  UNL1        0.0000
     18 H           6.0062    1.2773    5.4268 H       1  UNL1        0.0000
     19 H           5.7828    2.9842    4.9924 H       1  UNL1        0.0000
     20 H           4.9539    2.3241    6.4203 H       1  UNL1        0.0000
     21 H          -0.1001    1.9663    1.3112 H       1  UNL1        0.0000
     22 H           1.6495    1.9958    1.3380 H       1  UNL1        0.0000
     23 H           0.7381    3.2072    2.2201 H       1  UNL1        0.0000
     24 H          -1.7386    1.5929    3.6435 H       1  UNL1        0.0000
     25 H          -1.4036    0.1037    4.4961 H       1  UNL1        0.0000
     26 H          -0.9833    1.6485    5.2261 H       1  UNL1        0.0000
     27 H          -0.3172   -0.9397    1.5393 H       1  UNL1        0.0000
     28 H           0.3030   -3.2395    0.9388 H       1  UNL1        0.0000
     29 H           2.1841   -4.3525    2.0836 H       1  UNL1        0.0000
     30 H           3.4390   -3.1460    3.8329 H       1  UNL1        0.0000
     31 H           2.8083   -0.8385    4.4254 H       1  UNL1        0.0000
@<TRIPOS>BOND
     1    28    11    1
     2    21     7    1
     3    22     7    1
     4    27    10    1
     5    11    10   ar
     6    11    12   ar
     7     7    23    1
     8     7     1    1
     9    10     9   ar
    10    29    12    1
    11    12    13   ar
    12    17     5    1
    13    15     5    1
    14     9     1    1
    15     9    14   ar
    16    16     5    1
    17     5     2    1
    18    13    14   ar
    19    13    30    1
    20     1     8    1
    21     1     3    1
    22    24     8    1
    23    14    31    1
    24     8    25    1
    25     8    26    1
    26     2     4    1
    27     2     6    1
    28     3     4    2
    29    19     6    1
    30     6    18    1
    31     6    20    1
