@<TRIPOS>MOLECULE
1,5
 33 34 0 0 0
SMALL
GASTEIGER

@<TRIPOS>ATOM
      1 N           3.1789    2.7128    1.5292 N.pl3   1  UNL1       -0.2386
      2 C           3.1033    4.7899    0.2566 C.3     1  UNL1       -0.0002
      3 H           2.1888    4.3783   -0.1853 H       1  UNL1        0.0336
      4 H           3.7716    5.1364   -0.5367 H       1  UNL1        0.0336
      5 C           3.8313    3.7442    1.1043 C.3     1  UNL1        0.1082
      6 C           2.7545    5.9359    1.1633 C.ar    1  UNL1       -0.0451
      7 C           3.7381    6.8244    1.5839 C.ar    1  UNL1       -0.0585
      8 H           4.7447    6.7162    1.2064 H       1  UNL1        0.0620
      9 C           3.4332    7.8498    2.4599 C.ar    1  UNL1       -0.0615
     10 H           4.2063    8.5329    2.7801 H       1  UNL1        0.0618
     11 C           2.1379    8.0033    2.9260 C.ar    1  UNL1       -0.0617
     12 H           1.8989    8.8025    3.6116 H       1  UNL1        0.0618
     13 C           1.1495    7.1319    2.5018 C.ar    1  UNL1       -0.0615
     14 H           0.1350    7.2512    2.8531 H       1  UNL1        0.0618
     15 C           1.4556    6.1026    1.6280 C.ar    1  UNL1       -0.0585
     16 H           0.6780    5.4279    1.2974 H       1  UNL1        0.0620
     17 C           1.8252    2.4024    1.2426 C.ar    1  UNL1        0.0544
     18 C           1.5047    1.7769    0.0313 C.ar    1  UNL1       -0.0276
     19 C           0.1796    1.4766   -0.2433 C.ar    1  UNL1       -0.0570
     20 H          -0.0695    0.9970   -1.1790 H       1  UNL1        0.0621
     21 C          -0.8173    1.7817    0.6654 C.ar    1  UNL1       -0.0611
     22 H          -1.8470    1.5515    0.4366 H       1  UNL1        0.0618
     23 C          -0.4874    2.3605    1.8777 C.ar    1  UNL1       -0.0570
     24 H          -1.2605    2.5713    2.6022 H       1  UNL1        0.0621
     25 C           0.8283    2.6670    2.1880 C.ar    1  UNL1       -0.0276
     26 C           2.5987    1.4178   -0.9294 C.3     1  UNL1       -0.0379
     27 H           2.2503    0.6769   -1.6451 H       1  UNL1        0.0278
     28 H           3.4563    1.0145   -0.3824 H       1  UNL1        0.0278
     29 H           2.9346    2.2960   -1.4836 H       1  UNL1        0.0278
     30 C           1.1971    3.2435    3.5187 C.3     1  UNL1       -0.0379
     31 H           2.0039    2.6534    3.9568 H       1  UNL1        0.0278
     32 H           0.3425    3.2307    4.1902 H       1  UNL1        0.0278
     33 H           1.5421    4.2728    3.4146 H       1  UNL1        0.0278
@<TRIPOS>BOND
     1    27    26    1
     2    29    26    1
     3    20    19    1
     4    26    28    1
     5    26    18    1
     6     4     2    1
     7    19    18   ar
     8    19    21   ar
     9     3     2    1
    10    18    17   ar
    11     2     5    1
    12     2     6    1
    13    22    21    1
    14    21    23   ar
    15     5     1    1
    16     6     7   ar
    17     6    15   ar
    18     8     7    1
    19    17     1    1
    20    17    25   ar
    21    16    15    1
    22     7     9   ar
    23    15    13   ar
    24    23    25   ar
    25    23    24    1
    26    25    30    1
    27     9    10    1
    28     9    11   ar
    29    13    14    1
    30    13    11   ar
    31    11    12    1
    32    33    30    1
    33    30    31    1
    34    30    32    1
