@<TRIPOS>MOLECULE
3,4
 48 50 0 0 0
SMALL
GASTEIGER

@<TRIPOS>ATOM
      1 O           5.0573    5.2971    6.7315 O.3     1  UNL1       -0.4520
      2 O           4.3717    3.7473    8.2912 O.3     1  UNL1       -0.4526
      3 N           1.1869    8.6825    6.1107 N.pl3   1  UNL1       -0.2366
      4 C           2.9608    6.5668    6.5857 C.ar    1  UNL1        0.0369
      5 C           3.7526    5.5522    7.0752 C.ar    1  UNL1        0.1743
      6 C           3.3470    4.5998    8.0148 C.ar    1  UNL1        0.1669
      7 C           2.0625    4.5983    8.5041 C.ar    1  UNL1       -0.0158
      8 H           1.7223    3.8494    9.1995 H       1  UNL1        0.0655
      9 C           1.2369    5.6271    8.0735 C.ar    1  UNL1       -0.0521
     10 H           0.2320    5.6436    8.4635 H       1  UNL1        0.0622
     11 C           1.6657    6.6110    7.1738 C.ar    1  UNL1       -0.0087
     12 C           5.4664    4.1991    7.5155 C.3     1  UNL1        0.2333
     13 H           5.8076    3.3805    6.8651 H       1  UNL1        0.1166
     14 H           6.2861    4.5050    8.1839 H       1  UNL1        0.1166
     15 C           0.7953    7.7598    6.9075 C.3     1  UNL1        0.1031
     16 C          -0.5057    7.8518    7.6644 C.3     1  UNL1       -0.0353
     17 H          -0.9743    8.8196    7.4955 H       1  UNL1        0.0255
     18 H          -0.3401    7.7261    8.7329 H       1  UNL1        0.0255
     19 H          -1.1846    7.0672    7.3320 H       1  UNL1        0.0255
     20 C           0.4493    9.8586    5.8842 C.ar    1  UNL1        0.0557
     21 C          -0.6781    9.8942    5.0456 C.ar    1  UNL1       -0.0219
     22 C          -1.2830   11.1191    4.7928 C.ar    1  UNL1       -0.0565
     23 H          -2.1460   11.1572    4.1456 H       1  UNL1        0.0621
     24 C          -0.8167   12.2874    5.3598 C.ar    1  UNL1       -0.0611
     25 H          -1.3022   13.2285    5.1473 H       1  UNL1        0.0618
     26 C           0.2625   12.2391    6.2221 C.ar    1  UNL1       -0.0565
     27 H           0.6026   13.1482    6.6912 H       1  UNL1        0.0621
     28 C           0.9018   11.0418    6.4988 C.ar    1  UNL1       -0.0219
     29 C          -1.2904    8.6584    4.4207 C.3     1  UNL1       -0.0197
     30 H          -0.6733    7.7871    4.6649 H       1  UNL1        0.0344
     31 C          -2.7043    8.4142    4.9620 C.3     1  UNL1       -0.0586
     32 H          -2.7178    8.3501    6.0466 H       1  UNL1        0.0235
     33 H          -3.0980    7.4840    4.5570 H       1  UNL1        0.0235
     34 H          -3.3707    9.2215    4.6671 H       1  UNL1        0.0235
     35 C          -1.3636    8.7868    2.8959 C.3     1  UNL1       -0.0586
     36 H          -1.6385    7.8305    2.4564 H       1  UNL1        0.0235
     37 H          -0.4065    9.0934    2.4835 H       1  UNL1        0.0235
     38 H          -2.1118    9.5199    2.6034 H       1  UNL1        0.0235
     39 C           1.9925   10.9874    7.5443 C.3     1  UNL1       -0.0197
     40 H           2.6783   10.1677    7.2909 H       1  UNL1        0.0344
     41 C           2.8088   12.2752    7.6497 C.3     1  UNL1       -0.0586
     42 H           3.0917   12.6436    6.6679 H       1  UNL1        0.0235
     43 H           3.7177   12.0826    8.2156 H       1  UNL1        0.0235
     44 H           2.2500   13.0505    8.1700 H       1  UNL1        0.0235
     45 C           1.3475   10.6951    8.9048 C.3     1  UNL1       -0.0586
     46 H           0.9268    9.6951    8.9353 H       1  UNL1        0.0235
     47 H           0.5511   11.4116    9.1018 H       1  UNL1        0.0235
     48 H           2.0874   10.7800    9.6961 H       1  UNL1        0.0235
@<TRIPOS>BOND
     1    36    35    1
     2    37    35    1
     3    38    35    1
     4    35    29    1
     5    23    22    1
     6    29    30    1
     7    29    31    1
     8    29    21    1
     9    33    31    1
    10    34    31    1
    11    22    21   ar
    12    22    24   ar
    13    31    32    1
    14    21    20   ar
    15    25    24    1
    16    24    26   ar
    17    20     3    1
    18    20    28   ar
    19     3    15    1
    20    26    28   ar
    21    26    27    1
    22    28    39    1
    23     4     5   ar
    24     4    11   ar
    25    42    41    1
    26     1     5    1
    27     1    12    1
    28    13    12    1
    29    15    11    1
    30    15    16    1
    31     5     6   ar
    32    11     9   ar
    33    40    39    1
    34    19    16    1
    35    17    16    1
    36    12    14    1
    37    12     2    1
    38    39    41    1
    39    39    45    1
    40    41    44    1
    41    41    43    1
    42    16    18    1
    43     6     2    1
    44     6     7   ar
    45     9    10    1
    46     9     7   ar
    47     7     8    1
    48    45    46    1
    49    45    47    1
    50    45    48    1
