@<TRIPOS>MOLECULE
1,3
 47 48 0 0 0
SMALL
GASTEIGER

@<TRIPOS>ATOM
      1 N           3.4293    1.7513   13.8535 N.pl3   1  UNL1       -0.2215
      2 C           4.2428    0.9098   13.1332 C.2     1  UNL1        0.0257
      3 C           3.6212   -0.2612   12.8145 C.2     1  UNL1        0.0068
      4 C           4.1516   -1.3708   12.0759 C.ar    1  UNL1       -0.0160
      5 C           3.2876   -2.4424   11.7843 C.ar    1  UNL1       -0.0537
      6 C           3.7210   -3.5377   11.0716 C.ar    1  UNL1       -0.0583
      7 C           5.0354   -3.6229   10.6156 C.ar    1  UNL1       -0.0504
      8 C           5.4931   -4.8234    9.8414 C.3     1  UNL1       -0.0397
      9 C           5.8960   -2.5691   10.8960 C.ar    1  UNL1       -0.0583
     10 C           5.4708   -1.4651   11.6072 C.ar    1  UNL1       -0.0537
     11 C           3.7850    3.0374   14.2103 C.ar    1  UNL1        0.0599
     12 C           4.3134    3.9738   13.2884 C.ar    1  UNL1       -0.0216
     13 C           4.4559    3.6616   11.8128 C.3     1  UNL1       -0.0197
     14 C           5.9204    3.7099   11.3708 C.3     1  UNL1       -0.0586
     15 C           3.6152    4.6294   10.9730 C.3     1  UNL1       -0.0586
     16 C           4.6507    5.2442   13.7303 C.ar    1  UNL1       -0.0565
     17 C           4.4631    5.6300   15.0431 C.ar    1  UNL1       -0.0611
     18 C           3.9122    4.7312   15.9390 C.ar    1  UNL1       -0.0565
     19 C           3.5699    3.4491   15.5495 C.ar    1  UNL1       -0.0216
     20 C           3.0280    2.4723   16.5718 C.3     1  UNL1       -0.0197
     21 C           1.8052    3.0318   17.3047 C.3     1  UNL1       -0.0586
     22 C           4.1271    2.1110   17.5763 C.3     1  UNL1       -0.0586
     23 H           5.2826    1.2117   12.9434 H       1  UNL1        0.0808
     24 H           2.2605   -2.3670   12.1322 H       1  UNL1        0.0624
     25 H           3.0378   -4.3498   10.8581 H       1  UNL1        0.0620
     26 H           6.5430   -4.7355    9.5724 H       1  UNL1        0.0278
     27 H           5.3611   -5.7314   10.4298 H       1  UNL1        0.0278
     28 H           4.9098   -4.9334    8.9270 H       1  UNL1        0.0278
     29 H           6.9202   -2.6155   10.5494 H       1  UNL1        0.0620
     30 H           6.1667   -0.6630   11.8092 H       1  UNL1        0.0624
     31 H           6.0057    3.4358   10.3210 H       1  UNL1        0.0235
     32 H           6.3329    4.7079   11.5008 H       1  UNL1        0.0235
     33 H           6.5210    3.0177   11.9574 H       1  UNL1        0.0235
     34 H           3.6527    4.3396    9.9248 H       1  UNL1        0.0235
     35 H           2.5751    4.6131   11.2953 H       1  UNL1        0.0235
     36 H           3.9829    5.6491   11.0585 H       1  UNL1        0.0235
     37 H           5.0660    5.9546   13.0302 H       1  UNL1        0.0621
     38 H           4.7403    6.6228   15.3653 H       1  UNL1        0.0618
     39 H           3.7664    5.0354   16.9653 H       1  UNL1        0.0621
     40 H           1.4126    2.2877   17.9963 H       1  UNL1        0.0235
     41 H           2.0619    3.9195   17.8793 H       1  UNL1        0.0235
     42 H           1.0204    3.2989   16.5980 H       1  UNL1        0.0235
     43 H           3.7742    1.3485   18.2674 H       1  UNL1        0.0235
     44 H           5.0005    1.7243   17.0566 H       1  UNL1        0.0235
     45 H           4.4303    2.9856   18.1489 H       1  UNL1        0.0235
     46 H           4.0772    2.6527   11.6215 H       1  UNL1        0.0344
     47 H           2.7277    1.5496   16.0477 H       1  UNL1        0.0344
@<TRIPOS>BOND
     1    28     8    1
     2    26     8    1
     3     8    27    1
     4     8     7    1
     5    34    15    1
     6    31    14    1
     7    29     9    1
     8     7     9   ar
     9     7     6   ar
    10    25     6    1
    11     9    10   ar
    12    15    36    1
    13    15    35    1
    14    15    13    1
    15     6     5   ar
    16    14    32    1
    17    14    13    1
    18    14    33    1
    19    10    30    1
    20    10     4   ar
    21    46    13    1
    22     5     4   ar
    23     5    24    1
    24    13    12    1
    25     4     3    1
    26     3     2    2
    27    23     2    1
    28    37    16    1
    29     2     1    1
    30    12    16   ar
    31    12    11   ar
    32    16    17   ar
    33     1    11    1
    34    11    19   ar
    35    17    38    1
    36    17    18   ar
    37    19    18   ar
    38    19    20    1
    39    18    39    1
    40    47    20    1
    41    20    21    1
    42    20    22    1
    43    42    21    1
    44    44    22    1
    45    21    41    1
    46    21    40    1
    47    22    45    1
    48    22    43    1
