@<TRIPOS>MOLECULE
1,10
 22 22 0 0 0
SMALL
GASTEIGER

@<TRIPOS>ATOM
      1 N          -1.0345    8.4485   11.1335 N.3     1  UNL1       -0.3042
      2 C          -1.2717    9.8828   11.1791 C.3     1  UNL1       -0.0127
      3 H          -0.4327   10.3976   10.7130 H       1  UNL1        0.0391
      4 H          -1.3902   10.2427   12.2093 H       1  UNL1        0.0391
      5 H          -2.1742   10.1166   10.6184 H       1  UNL1        0.0391
      6 C          -2.1963    7.7200   11.6282 C.3     1  UNL1       -0.0127
      7 H          -3.0485    7.9262   10.9821 H       1  UNL1        0.0391
      8 H          -2.4491    8.0148   12.6555 H       1  UNL1        0.0391
      9 H          -1.9923    6.6498   11.6089 H       1  UNL1        0.0391
     10 C           0.4418    6.1877   10.3016 C.ar    1  UNL1       -0.0132
     11 C           0.8118    4.8654   10.0756 C.ar    1  UNL1       -0.0537
     12 H           0.6550    4.4291    9.0976 H       1  UNL1        0.0624
     13 C           1.3621    4.0795   11.0761 C.ar    1  UNL1       -0.0612
     14 H           1.6451    3.0590   10.8645 H       1  UNL1        0.0618
     15 C           1.5371    4.6029   12.3447 C.ar    1  UNL1       -0.0614
     16 H           1.9620    3.9982   13.1317 H       1  UNL1        0.0618
     17 C           1.1424    5.9025   12.6046 C.ar    1  UNL1       -0.0568
     18 H           1.2565    6.3129   13.5981 H       1  UNL1        0.0621
     19 C           0.5951    6.6860   11.5958 C.ar    1  UNL1       -0.0257
     20 C           0.1652    8.0995   11.8913 C.3     1  UNL1        0.0240
     21 H           0.0055    8.2333   12.9726 H       1  UNL1        0.0476
     22 H           0.9652    8.7771   11.5737 H       1  UNL1        0.0476
@<TRIPOS>BOND
     1    12    11    1
     2    11    10   ar
     3    11    13   ar
     4    10    19   ar
     5     5     2    1
     6     3     2    1
     7    14    13    1
     8     7     6    1
     9    13    15   ar
    10     1     2    1
    11     1     6    1
    12     1    20    1
    13     2     4    1
    14    22    20    1
    15    19    20    1
    16    19    17   ar
    17     9     6    1
    18     6     8    1
    19    20    21    1
    20    15    17   ar
    21    15    16    1
    22    17    18    1
