@<TRIPOS>MOLECULE
1,6
 16 16 0 0 0
SMALL
GASTEIGER

@<TRIPOS>ATOM
      1 N          17.7807    9.9661    0.5896 N.pl3   1  UNL1       -0.2539
      2 C          18.1363    9.1748   -0.5873 C.3     1  UNL1        0.0200
      3 H          17.4154    8.3639   -0.7263 H       1  UNL1        0.0446
      4 H          19.1278    8.7222   -0.4368 H       1  UNL1        0.0446
      5 H          18.1917    9.7628   -1.5121 H       1  UNL1        0.0446
      6 C          18.5258   11.1380    0.7175 C.ar    1  UNL1        0.0474
      7 C          18.7774   12.0309   -0.3387 C.ar    1  UNL1       -0.0391
      8 H          18.3698   11.8431   -1.3228 H       1  UNL1        0.0637
      9 C          19.5258   13.1749   -0.1403 C.ar    1  UNL1       -0.0600
     10 H          19.6845   13.8530   -0.9672 H       1  UNL1        0.0618
     11 C          20.0769   13.4584    1.0983 C.ar    1  UNL1       -0.0616
     12 H          20.6707   14.3483    1.2416 H       1  UNL1        0.0618
     13 C          19.8669   12.5753    2.1459 C.ar    1  UNL1       -0.0600
     14 H          20.3143   12.7698    3.1105 H       1  UNL1        0.0618
     15 C          19.1033   11.4406    1.9627 C.ar    1  UNL1       -0.0391
     16 H          18.9665   10.7366    2.7719 H       1  UNL1        0.0637
@<TRIPOS>BOND
     1     5     2    1
     2     8     7    1
     3    10     9    1
     4     3     2    1
     5     2     4    1
     6     2     1    1
     7     7     9   ar
     8     7     6   ar
     9     9    11   ar
    10     1     6    1
    11     6    15   ar
    12    11    12    1
    13    11    13   ar
    14    15    13   ar
    15    15    16    1
    16    13    14    1
