@<TRIPOS>MOLECULE
1,6
 16 16 0 0 0
SMALL
GASTEIGER

@<TRIPOS>ATOM
      1 N          14.9880    9.6831   -0.3833 N.pl3   1  UNL1       -0.2539
      2 C          15.4480   10.4515   -1.5389 C.3     1  UNL1        0.0200
      3 H          16.1011   11.2660   -1.2121 H       1  UNL1        0.0446
      4 H          14.5813   10.8983   -2.0485 H       1  UNL1        0.0446
      5 H          15.9800    9.8478   -2.2850 H       1  UNL1        0.0446
      6 C          14.3174    8.5097   -0.7273 C.ar    1  UNL1        0.0474
      7 C          13.0880    8.2258   -0.1079 C.ar    1  UNL1       -0.0391
      8 H          12.6959    8.9444    0.5984 H       1  UNL1        0.0637
      9 C          12.3688    7.0906   -0.4211 C.ar    1  UNL1       -0.0600
     10 H          11.4168    6.9105    0.0580 H       1  UNL1        0.0618
     11 C          12.8510    6.1883   -1.3564 C.ar    1  UNL1       -0.0616
     12 H          12.2911    5.2980   -1.5994 H       1  UNL1        0.0618
     13 C          14.0555    6.4530   -1.9868 C.ar    1  UNL1       -0.0600
     14 H          14.4416    5.7599   -2.7212 H       1  UNL1        0.0618
     15 C          14.7722    7.5973   -1.6951 C.ar    1  UNL1       -0.0391
     16 H          15.7053    7.7701   -2.2141 H       1  UNL1        0.0637
@<TRIPOS>BOND
     1    14    13    1
     2     5     2    1
     3    16    15    1
     4     4     2    1
     5    13    15   ar
     6    13    11   ar
     7    15     6   ar
     8    12    11    1
     9     2     3    1
    10     2     1    1
    11    11     9   ar
    12     6     1    1
    13     6     7   ar
    14     9     7   ar
    15     9    10    1
    16     7     8    1
