@<TRIPOS>MOLECULE
4,5
 53 55 0 0 0
SMALL
GASTEIGER

@<TRIPOS>ATOM
      1 H           8.9712    7.8391   11.0639 H       1  UNL1        0.0000
      2 O           6.2631    7.8552   10.0826 O.2     1  UNL1        0.0000
      3 SI          9.3168    9.8570   15.4792 Si      1  UNL1        0.0000
      4 N           8.3572    9.2358   14.1591 N.3     1  UNL1        0.0000
      5 C           8.2290    8.1629   11.7949 C.3     1  UNL1        0.0000
      6 P           8.6603    7.8048   13.4992 P.3     1  UNL1        0.0000
      7 S           6.6977    7.3965   11.3820 S.O2    1  UNL1        0.0000
      8 C          10.3771    7.2070   13.5984 C.ar    1  UNL1        0.0000
      9 O           5.7738    7.5973   12.4753 O.2     1  UNL1        0.0000
     10 C          11.3125    7.6219   12.6580 C.ar    1  UNL1        0.0000
     11 H          11.0066    8.2457   11.8329 H       1  UNL1        0.0000
     12 C          12.6410    7.2594   12.7913 C.ar    1  UNL1        0.0000
     13 H          13.3598    7.5910   12.0570 H       1  UNL1        0.0000
     14 C          13.0457    6.4826   13.8645 C.ar    1  UNL1        0.0000
     15 H          14.0831    6.2016   13.9700 H       1  UNL1        0.0000
     16 C          12.1173    6.0702   14.8072 C.ar    1  UNL1        0.0000
     17 H          12.4304    5.4672   15.6473 H       1  UNL1        0.0000
     18 C          10.7888    6.4330   14.6789 C.ar    1  UNL1        0.0000
     19 H          10.0662    6.1115   15.4148 H       1  UNL1        0.0000
     20 C           7.6839    6.4949   14.2911 C.ar    1  UNL1        0.0000
     21 C           6.6287    6.8769   15.1078 C.ar    1  UNL1        0.0000
     22 H           6.4391    7.9327   15.2373 H       1  UNL1        0.0000
     23 C           5.8465    5.9148   15.7182 C.ar    1  UNL1        0.0000
     24 H           5.0204    6.2081   16.3493 H       1  UNL1        0.0000
     25 C           6.1233    4.5710   15.5189 C.ar    1  UNL1        0.0000
     26 H           5.5145    3.8180   15.9977 H       1  UNL1        0.0000
     27 C           7.1788    4.1892   14.7068 C.ar    1  UNL1        0.0000
     28 H           7.3933    3.1419   14.5521 H       1  UNL1        0.0000
     29 C           7.9581    5.1488   14.0858 C.ar    1  UNL1        0.0000
     30 H           8.7801    4.8552   13.4463 H       1  UNL1        0.0000
     31 C           6.9370    5.6121   11.2140 C.ar    1  UNL1        0.0000
     32 C           5.9764    4.7720   11.7426 C.ar    1  UNL1        0.0000
     33 H           5.1438    5.2107   12.2695 H       1  UNL1        0.0000
     34 C           6.1106    3.4017   11.5966 C.ar    1  UNL1        0.0000
     35 H           5.3633    2.7399   12.0076 H       1  UNL1        0.0000
     36 C           7.2056    2.8850   10.9235 C.ar    1  UNL1        0.0000
     37 H           7.3145    1.8165   10.8109 H       1  UNL1        0.0000
     38 C           8.1599    3.7346   10.3869 C.ar    1  UNL1        0.0000
     39 H           9.0081    3.3298    9.8557 H       1  UNL1        0.0000
     40 C           8.0237    5.1063   10.5267 C.ar    1  UNL1        0.0000
     41 H           8.7526    5.7765   10.0972 H       1  UNL1        0.0000
     42 C           9.2938    8.5797   16.9099 C.3     1  UNL1        0.0000
     43 H           8.5107    7.8379   16.7891 H       1  UNL1        0.0000
     44 H           9.1338    9.0778   17.8595 H       1  UNL1        0.0000
     45 H          10.2413    8.0560   16.9768 H       1  UNL1        0.0000
     46 C           8.5012   11.4593   16.1186 C.3     1  UNL1        0.0000
     47 H           8.5658   12.2532   15.3838 H       1  UNL1        0.0000
     48 H           9.0250   11.7929   17.0078 H       1  UNL1        0.0000
     49 H           7.4599   11.3174   16.3874 H       1  UNL1        0.0000
     50 C          11.1247   10.2464   15.0024 C.3     1  UNL1        0.0000
     51 H          11.7607    9.3668   15.0495 H       1  UNL1        0.0000
     52 H          11.5539   11.0038   15.6507 H       1  UNL1        0.0000
     53 H          11.1451   10.6159   13.9814 H       1  UNL1        0.0000
@<TRIPOS>BOND
     1    39    38    1
     2     2     7    2
     3    41    40    1
     4    38    40   ar
     5    38    36   ar
     6    40    31   ar
     7    37    36    1
     8    36    34   ar
     9     1     5    1
    10    31     7    1
    11    31    32   ar
    12     7     5    1
    13     7     9    2
    14    34    32   ar
    15    34    35    1
    16    32    33    1
    17     5     6    1
    18    11    10    1
    19    13    12    1
    20    10    12   ar
    21    10     8   ar
    22    12    14   ar
    23    30    29    1
    24     6     8    1
    25     6     4    1
    26     6    20    1
    27     8    18   ar
    28    14    15    1
    29    14    16   ar
    30    53    50    1
    31    29    20   ar
    32    29    27   ar
    33     4     3    1
    34    20    21   ar
    35    28    27    1
    36    18    16   ar
    37    18    19    1
    38    27    25   ar
    39    16    17    1
    40    50    51    1
    41    50     3    1
    42    50    52    1
    43    21    22    1
    44    21    23   ar
    45    47    46    1
    46     3    46    1
    47     3    42    1
    48    25    23   ar
    49    25    26    1
    50    23    24    1
    51    46    49    1
    52    46    48    1
    53    43    42    1
    54    42    45    1
    55    42    44    1
