@<TRIPOS>MOLECULE
4,6
 53 55 0 0 0
SMALL
GASTEIGER

@<TRIPOS>ATOM
      1 O          -1.9564    0.5925    5.1465 O.2     1  UNL1        0.0000
      2 S          -2.0995    0.5869    3.7093 S.O2    1  UNL1        0.0000
      3 SI          2.3777    0.5693    6.1762 Si      1  UNL1        0.0000
      4 N           1.1003    0.8277    5.0303 N.3     1  UNL1        0.0000
      5 P           0.6439   -0.1590    3.8678 P.3     1  UNL1        0.0000
      6 C          -0.5139    0.8901    2.9870 C.3     1  UNL1        0.0000
      7 C           1.8501   -0.5926    2.5610 C.ar    1  UNL1        0.0000
      8 O          -3.1108    1.4584    3.1550 O.2     1  UNL1        0.0000
      9 C           3.1898   -0.2629    2.7021 C.ar    1  UNL1        0.0000
     10 H           3.5054    0.2576    3.5923 H       1  UNL1        0.0000
     11 C           4.0930   -0.5714    1.7003 C.ar    1  UNL1        0.0000
     12 H           5.1341   -0.3081    1.8139 H       1  UNL1        0.0000
     13 C           2.3222   -1.5252    0.3942 C.ar    1  UNL1        0.0000
     14 H           1.9814   -2.0093   -0.5099 H       1  UNL1        0.0000
     15 C           1.4168   -1.2118    1.3919 C.ar    1  UNL1        0.0000
     16 H           0.3670   -1.4394    1.2583 H       1  UNL1        0.0000
     17 C           1.7575    0.8694    7.9619 C.3     1  UNL1        0.0000
     18 H           1.7472    1.9262    8.2073 H       1  UNL1        0.0000
     19 H           2.4246    0.3836    8.6668 H       1  UNL1        0.0000
     20 H           0.7586    0.4802    8.1288 H       1  UNL1        0.0000
     21 C          -3.1084   -1.9307    4.2105 C.ar    1  UNL1        0.0000
     22 H          -3.1982   -1.5577    5.2183 H       1  UNL1        0.0000
     23 C           0.0908   -1.7613    4.5422 C.ar    1  UNL1        0.0000
     24 C           0.1407   -2.9656    3.8505 C.ar    1  UNL1        0.0000
     25 H           0.5230   -3.0043    2.8422 H       1  UNL1        0.0000
     26 C          -0.2841   -4.1302    4.4646 C.ar    1  UNL1        0.0000
     27 H          -0.2461   -5.0639    3.9227 H       1  UNL1        0.0000
     28 C          -0.7480   -4.1048    5.7691 C.ar    1  UNL1        0.0000
     29 H          -1.0756   -5.0186    6.2429 H       1  UNL1        0.0000
     30 C          -0.7803   -2.9086    6.4675 C.ar    1  UNL1        0.0000
     31 H          -1.1311   -2.8881    7.4891 H       1  UNL1        0.0000
     32 C          -0.3618   -1.7418    5.8566 C.ar    1  UNL1        0.0000
     33 H          -0.3893   -0.7962    6.3752 H       1  UNL1        0.0000
     34 C          -2.5909   -1.0933    3.2414 C.ar    1  UNL1        0.0000
     35 C          -2.4830   -1.5134    1.9288 C.ar    1  UNL1        0.0000
     36 H          -2.1258   -0.8294    1.1733 H       1  UNL1        0.0000
     37 C          -2.8576   -2.8039    1.5924 C.ar    1  UNL1        0.0000
     38 H          -2.7703   -3.1416    0.5701 H       1  UNL1        0.0000
     39 C          -3.3497   -3.6576    2.5664 C.ar    1  UNL1        0.0000
     40 H          -3.6385   -4.6642    2.3024 H       1  UNL1        0.0000
     41 C          -3.4859   -3.2192    3.8733 C.ar    1  UNL1        0.0000
     42 H          -3.8862   -3.8789    4.6282 H       1  UNL1        0.0000
     43 C           3.7658    1.8334    5.7834 C.3     1  UNL1        0.0000
     44 H           4.6804    1.3596    5.4396 H       1  UNL1        0.0000
     45 H           4.0218    2.4263    6.6554 H       1  UNL1        0.0000
     46 H           3.4214    2.5095    5.0005 H       1  UNL1        0.0000
     47 C           3.0051   -1.2379    6.0974 C.3     1  UNL1        0.0000
     48 H           2.4132   -1.8804    6.7421 H       1  UNL1        0.0000
     49 H           4.0382   -1.3131    6.4213 H       1  UNL1        0.0000
     50 H           2.9380   -1.6402    5.0896 H       1  UNL1        0.0000
     51 C           3.6624   -1.2112    0.5498 C.ar    1  UNL1        0.0000
     52 H           4.3671   -1.4548   -0.2316 H       1  UNL1        0.0000
     53 H          -0.5798    0.6980    1.9144 H       1  UNL1        0.0000
@<TRIPOS>BOND
     1    14    13    1
     2    52    51    1
     3    13    51   ar
     4    13    15   ar
     5    51    11   ar
     6    38    37    1
     7    36    35    1
     8    16    15    1
     9    15     7   ar
    10    37    35   ar
    11    37    39   ar
    12    11    12    1
    13    11     9   ar
    14    53     6    1
    15    35    34   ar
    16    40    39    1
    17     7     9   ar
    18     7     5    1
    19    39    41   ar
    20     9    10    1
    21    25    24    1
    22     6     2    1
    23     6     5    1
    24     8     2    2
    25    34     2    1
    26    34    21   ar
    27     2     1    2
    28    24    26   ar
    29    24    23   ar
    30     5    23    1
    31     5     4    1
    32    41    21   ar
    33    41    42    1
    34    27    26    1
    35    21    22    1
    36    26    28   ar
    37    23    32   ar
    38    46    43    1
    39     4     3    1
    40    50    47    1
    41    44    43    1
    42    28    29    1
    43    28    30   ar
    44    43     3    1
    45    43    45    1
    46    32    33    1
    47    32    30   ar
    48    47     3    1
    49    47    49    1
    50    47    48    1
    51     3    17    1
    52    30    31    1
    53    17    20    1
    54    17    18    1
    55    17    19    1
