@<TRIPOS>MOLECULE
2,4
 42 43 0 0 0
SMALL
GASTEIGER

@<TRIPOS>ATOM
      1 SI          5.4814   11.9082   15.0381 Si      1  UNL1        0.0000
      2 N           6.0729   11.5550   13.4373 N.pl3   1  UNL1        0.0000
      3 C           4.8810   10.1541   15.4207 C.2     1  UNL1        0.0000
      4 C           5.8317    9.0318   15.3314 C.3     1  UNL1        0.0000
      5 C           5.0938    7.8438   15.6551 C.2     1  UNL1        0.0000
      6 C           3.7688    8.1950   15.8741 C.2     1  UNL1        0.0000
      7 C           3.6421    9.6035   15.7290 C.2     1  UNL1        0.0000
      8 C           7.2940    9.1620   15.7352 C.3     1  UNL1        0.0000
      9 H           7.3524    9.2890   16.8208 H       1  UNL1        0.0000
     10 H           7.7780   10.0248   15.2740 H       1  UNL1        0.0000
     11 H           7.8512    8.2606   15.4801 H       1  UNL1        0.0000
     12 C           5.7313    6.4952   15.8224 C.3     1  UNL1        0.0000
     13 H           6.4135    6.2831   14.9965 H       1  UNL1        0.0000
     14 H           4.9836    5.7053   15.8636 H       1  UNL1        0.0000
     15 H           6.3037    6.4562   16.7520 H       1  UNL1        0.0000
     16 C           2.6276    7.2966   16.2323 C.3     1  UNL1        0.0000
     17 H           2.2820    7.5062   17.2460 H       1  UNL1        0.0000
     18 H           2.9158    6.2494   16.1857 H       1  UNL1        0.0000
     19 H           1.7842    7.4508   15.5581 H       1  UNL1        0.0000
     20 C           2.3409   10.3198   15.9099 C.3     1  UNL1        0.0000
     21 H           1.6231   10.0407   15.1340 H       1  UNL1        0.0000
     22 H           2.4824   11.3948   15.8855 H       1  UNL1        0.0000
     23 H           1.8982   10.0533   16.8701 H       1  UNL1        0.0000
     24 C           6.8332   12.5107   16.2709 C.3     1  UNL1        0.0000
     25 H           7.8298   12.4092   15.8521 H       1  UNL1        0.0000
     26 H           6.8053   11.9474   17.1977 H       1  UNL1        0.0000
     27 H           6.6928   13.5571   16.5236 H       1  UNL1        0.0000
     28 C           4.1463   13.2864   15.1498 C.3     1  UNL1        0.0000
     29 H           4.5634   14.2349   14.8279 H       1  UNL1        0.0000
     30 H           3.8202   13.4116   16.1770 H       1  UNL1        0.0000
     31 H           3.2691   13.0994   14.5406 H       1  UNL1        0.0000
     32 C           6.6396   12.4263   12.5592 C.ar    1  UNL1        0.0000
     33 C           6.9770   11.9787   11.2641 C.ar    1  UNL1        0.0000
     34 H           6.7800   10.9269   11.0155 H       1  UNL1        0.0000
     35 C           7.5410   12.8188   10.3266 C.ar    1  UNL1        0.0000
     36 H           7.7878   12.4368    9.3443 H       1  UNL1        0.0000
     37 C           7.7915   14.1466   10.6346 C.ar    1  UNL1        0.0000
     38 H           8.2305   14.8063    9.9017 H       1  UNL1        0.0000
     39 C           7.4753   14.6098   11.9036 C.ar    1  UNL1        0.0000
     40 H           7.6737   15.6416   12.1599 H       1  UNL1        0.0000
     41 C           6.9152   13.7764   12.8466 C.ar    1  UNL1        0.0000
     42 H           6.6885   14.1499   13.8325 H       1  UNL1        0.0000
@<TRIPOS>BOND
     1    36    35    1
     2    38    37    1
     3    35    37   ar
     4    35    33   ar
     5    37    39   ar
     6    34    33    1
     7    33    32   ar
     8    39    40    1
     9    39    41   ar
    10    32    41   ar
    11    32     2    1
    12    41    42    1
    13     2     1    1
    14    31    28    1
    15    29    28    1
    16    13    12    1
    17     1    28    1
    18     1     3    1
    19     1    24    1
    20    21    20    1
    21    28    30    1
    22    10     8    1
    23     4     3    1
    24     4     5    1
    25     4     8    1
    26     3     7    2
    27    11     8    1
    28    19    16    1
    29     5    12    1
    30     5     6    2
    31     7     6    1
    32     7    20    1
    33     8     9    1
    34    12    14    1
    35    12    15    1
    36    25    24    1
    37     6    16    1
    38    22    20    1
    39    20    23    1
    40    18    16    1
    41    16    17    1
    42    24    27    1
    43    24    26    1
