@<TRIPOS>MOLECULE
1,2
 22 22 0 0 0
SMALL
GASTEIGER

@<TRIPOS>ATOM
      1 N           3.9886    2.8273    2.1205 N.pl3   1  UNL1       -0.3358
      2 C           5.9983    1.2071    3.2447 C.3     1  UNL1       -0.0219
      3 H           5.9863    0.8837    2.1928 H       1  UNL1        0.0317
      4 H           6.6368    0.5203    3.8133 H       1  UNL1        0.0317
      5 C           4.6470    1.2061    3.8137 C.ar    1  UNL1       -0.0261
      6 C           3.6217    2.0072    3.2578 C.ar    1  UNL1        0.0324
      7 C           2.3497    1.9979    3.8016 C.ar    1  UNL1       -0.0404
      8 H           1.5642    2.6021    3.3727 H       1  UNL1        0.0636
      9 C           2.0585    1.2243    4.9159 C.ar    1  UNL1       -0.0600
     10 H           1.0614    1.2305    5.3294 H       1  UNL1        0.0618
     11 C           3.0532    0.4498    5.4875 C.ar    1  UNL1       -0.0614
     12 H           2.8354   -0.1549    6.3564 H       1  UNL1        0.0618
     13 C           4.3210    0.4388    4.9409 C.ar    1  UNL1       -0.0568
     14 H           5.0873   -0.1831    5.3849 H       1  UNL1        0.0621
     15 C           3.2187    4.0645    2.0074 C.3     1  UNL1        0.0004
     16 H           2.1700    3.8874    1.7322 H       1  UNL1        0.0428
     17 H           3.6660    4.6793    1.2263 H       1  UNL1        0.0428
     18 H           3.2544    4.6096    2.9483 H       1  UNL1        0.0428
     19 C           3.7837    2.0495    0.8946 C.3     1  UNL1        0.0004
     20 H           4.2939    1.0918    0.9614 H       1  UNL1        0.0428
     21 H           4.1829    2.5930    0.0406 H       1  UNL1        0.0428
     22 H           2.7150    1.8553    0.7277 H       1  UNL1        0.0428
@<TRIPOS>BOND
     1    21    19    1
     2    22    19    1
     3    19    20    1
     4    19     1    1
     5    17    15    1
     6    16    15    1
     7    15     1    1
     8    15    18    1
     9     1     6    1
    10     3     2    1
    11     2     4    1
    12     2     5    1
    13     6     7   ar
    14     6     5   ar
    15     8     7    1
    16     7     9   ar
    17     5    13   ar
    18     9    10    1
    19     9    11   ar
    20    13    14    1
    21    13    11   ar
    22    11    12    1
