@<TRIPOS>MOLECULE
1,2
 22 22 0 0 0
SMALL
GASTEIGER

@<TRIPOS>ATOM
      1 N          -2.1916   11.0330    0.2025 N.3     1  UNL1       -0.3042
      2 C          -0.3223   10.1045   -1.5635 C.ar    1  UNL1       -0.0132
      3 C           0.4798    9.1833   -2.2467 C.ar    1  UNL1       -0.0537
      4 C           0.0097    8.4701   -3.3386 C.ar    1  UNL1       -0.0612
      5 C          -1.2905    8.6480   -3.7819 C.ar    1  UNL1       -0.0614
      6 C          -2.1252    9.5258   -3.1115 C.ar    1  UNL1       -0.0568
      7 C          -1.6452   10.2325   -2.0208 C.ar    1  UNL1       -0.0257
      8 C          -2.5126   11.1756   -1.2337 C.3     1  UNL1        0.0240
      9 C          -2.9699   12.0112    0.9638 C.3     1  UNL1       -0.0127
     10 C          -2.6150    9.6883    0.6206 C.3     1  UNL1       -0.0127
     11 H           1.5053    9.0279   -1.9240 H       1  UNL1        0.0624
     12 H           0.6606    7.7747   -3.8492 H       1  UNL1        0.0618
     13 H          -1.6557    8.0991   -4.6372 H       1  UNL1        0.0618
     14 H          -3.1483    9.6591   -3.4379 H       1  UNL1        0.0621
     15 H          -2.2759   12.2083   -1.5286 H       1  UNL1        0.0476
     16 H          -3.5831   10.9845   -1.4124 H       1  UNL1        0.0476
     17 H          -2.7451   13.0179    0.6141 H       1  UNL1        0.0391
     18 H          -2.7238   11.9460    2.0237 H       1  UNL1        0.0391
     19 H          -4.0485   11.8364    0.8431 H       1  UNL1        0.0391
     20 H          -2.0205    8.9269    0.1097 H       1  UNL1        0.0391
     21 H          -3.6744    9.5228    0.3777 H       1  UNL1        0.0391
     22 H          -2.4941    9.5646    1.6964 H       1  UNL1        0.0391
@<TRIPOS>BOND
     1    13     5    1
     2    12     4    1
     3     5     4   ar
     4     5     6   ar
     5    14     6    1
     6     4     3   ar
     7     6     7   ar
     8     3    11    1
     9     3     2   ar
    10     7     2   ar
    11     7     8    1
    12    15     8    1
    13    16     8    1
    14     8     1    1
    15    20    10    1
    16     1    10    1
    17     1     9    1
    18    21    10    1
    19    17     9    1
    20    10    22    1
    21    19     9    1
    22     9    18    1
