@<TRIPOS>MOLECULE
1,2
 35 35 0 0 0
SMALL
GASTEIGER

@<TRIPOS>ATOM
      1 N          14.4696   11.5442   12.0329 N.pl3   1  UNL1       -0.2390
      2 C          14.6578   11.2466   13.2844 C.3     1  UNL1        0.1041
      3 C          16.2656    9.5639   10.8861 C.3     1  UNL1       -0.0379
      4 C          16.3058   11.0086   10.4873 C.ar    1  UNL1       -0.0276
      5 C          15.5809   13.3026   10.7394 C.ar    1  UNL1       -0.0276
      6 C          16.3025   12.0809   15.1129 C.3     1  UNL1       -0.0356
      7 C          16.0972   11.3158   13.7942 C.3     1  UNL1       -0.0206
      8 C          17.1893   11.4136    9.4991 C.ar    1  UNL1       -0.0570
      9 C          15.6374   11.3437   16.2737 C.3     1  UNL1       -0.0600
     10 C          16.4799   13.6743    9.7509 C.ar    1  UNL1       -0.0570
     11 C          17.2792   12.7399    9.1214 C.ar    1  UNL1       -0.0611
     12 C          14.7637   14.3680   11.4093 C.3     1  UNL1       -0.0379
     13 C          17.8053   12.1949   15.3886 C.3     1  UNL1       -0.0600
     14 C          15.7098   13.4840   14.9738 C.3     1  UNL1       -0.0600
     15 C          15.4735   11.9540   11.1096 C.ar    1  UNL1        0.0543
     16 H          16.3179    8.9239   10.0079 H       1  UNL1        0.0278
     17 H          15.3548    9.3402   11.4401 H       1  UNL1        0.0278
     18 H          17.1169    9.3213   11.5237 H       1  UNL1        0.0278
     19 H          16.4247   10.2783   13.9360 H       1  UNL1        0.0293
     20 H          16.7459   11.7722   13.0337 H       1  UNL1        0.0293
     21 H          17.8199   10.6725    9.0290 H       1  UNL1        0.0621
     22 H          14.5901   11.1578   16.0492 H       1  UNL1        0.0235
     23 H          15.7008   11.9345   17.1852 H       1  UNL1        0.0235
     24 H          16.1328   10.3918   16.4496 H       1  UNL1        0.0235
     25 H          16.5515   14.7182    9.4797 H       1  UNL1        0.0621
     26 H          17.9724   13.0431    8.3513 H       1  UNL1        0.0618
     27 H          14.1395   13.9379   12.1872 H       1  UNL1        0.0278
     28 H          14.1270   14.8728   10.6836 H       1  UNL1        0.0278
     29 H          15.4169   15.1174   11.8565 H       1  UNL1        0.0278
     30 H          17.9802   12.7227   16.3240 H       1  UNL1        0.0235
     31 H          18.3048   12.7406   14.5905 H       1  UNL1        0.0235
     32 H          18.2583   11.2082   15.4622 H       1  UNL1        0.0235
     33 H          14.6469   13.4200   14.7459 H       1  UNL1        0.0235
     34 H          16.2007   14.0248   14.1675 H       1  UNL1        0.0235
     35 H          15.8346   14.0505   15.8943 H       1  UNL1        0.0235
@<TRIPOS>BOND
     1    26    11    1
     2    21     8    1
     3    11     8   ar
     4    11    10   ar
     5    25    10    1
     6     8     4   ar
     7    10     5   ar
     8    16     3    1
     9     4     3    1
    10     4    15   ar
    11    28    12    1
    12     5    15   ar
    13     5    12    1
    14     3    17    1
    15     3    18    1
    16    15     1    1
    17    12    29    1
    18    12    27    1
    19     1     2    1
    20    20     7    1
    21     2     7    1
    22     7    19    1
    23     7     6    1
    24    34    14    1
    25    31    13    1
    26    33    14    1
    27    14     6    1
    28    14    35    1
    29     6    13    1
    30     6     9    1
    31    13    32    1
    32    13    30    1
    33    22     9    1
    34     9    24    1
    35     9    23    1
