@<TRIPOS>MOLECULE
5,6
 59 61 0 0 0
SMALL
GASTEIGER

@<TRIPOS>ATOM
      1 SI          2.0813    3.8344    2.0574 Si      1  UNL1        0.0000
      2 SI          0.2248    3.1809    0.7053 Si      1  UNL1        0.0000
      3 SI          1.2590    5.0503    3.9468 Si      1  UNL1        0.0000
      4 SI          3.6591    5.1903    0.8898 Si      1  UNL1        0.0000
      5 N           3.4983    1.6270    3.1875 N.pl3   1  UNL1        0.0000
      6 C           2.3704    2.2433    3.0387 C.3     1  UNL1        0.0000
      7 C          -1.4701    3.4876    1.5463 C.3     1  UNL1        0.0000
      8 C           0.1836    1.3527    0.1140 C.3     1  UNL1        0.0000
      9 C           0.1834    4.2453   -0.8828 C.3     1  UNL1        0.0000
     10 C           2.6251    5.5471    5.2000 C.3     1  UNL1        0.0000
     11 C          -0.0281    4.0114    4.9130 C.3     1  UNL1        0.0000
     12 C           0.3884    6.6846    3.4652 C.3     1  UNL1        0.0000
     13 C           4.3417    4.5393   -0.7802 C.3     1  UNL1        0.0000
     14 C           5.2020    5.5912    1.9519 C.3     1  UNL1        0.0000
     15 C           2.8406    6.8761    0.4854 C.3     1  UNL1        0.0000
     16 C           4.7222    1.8685    2.5451 C.ar    1  UNL1        0.0000
     17 C           5.8141    2.2928    3.3211 C.ar    1  UNL1        0.0000
     18 C           7.0679    2.3931    2.7450 C.ar    1  UNL1        0.0000
     19 C           7.2620    2.0715    1.4125 C.ar    1  UNL1        0.0000
     20 C           6.1876    1.6527    0.6522 C.ar    1  UNL1        0.0000
     21 C           4.9129    1.5511    1.1924 C.ar    1  UNL1        0.0000
     22 C           5.5981    2.6584    4.7588 C.3     1  UNL1        0.0000
     23 C           3.7912    1.0800    0.3142 C.3     1  UNL1        0.0000
     24 H          -1.5610    4.5190    1.8722 H       1  UNL1        0.0000
     25 H          -1.6069    2.8580    2.4192 H       1  UNL1        0.0000
     26 H          -2.2953    3.2889    0.8669 H       1  UNL1        0.0000
     27 H           0.4132    0.6694    0.9280 H       1  UNL1        0.0000
     28 H           0.9030    1.1738   -0.6794 H       1  UNL1        0.0000
     29 H          -0.7962    1.0803   -0.2712 H       1  UNL1        0.0000
     30 H           0.0281    5.2917   -0.6403 H       1  UNL1        0.0000
     31 H          -0.6212    3.9457   -1.5479 H       1  UNL1        0.0000
     32 H           1.1103    4.1753   -1.4426 H       1  UNL1        0.0000
     33 H           3.3607    6.1992    4.7380 H       1  UNL1        0.0000
     34 H           3.1507    4.6727    5.5724 H       1  UNL1        0.0000
     35 H           2.2198    6.0755    6.0592 H       1  UNL1        0.0000
     36 H          -1.0238    4.1479    4.5031 H       1  UNL1        0.0000
     37 H          -0.0737    4.2811    5.9653 H       1  UNL1        0.0000
     38 H           0.2268    2.9514    4.8416 H       1  UNL1        0.0000
     39 H          -0.2562    6.5510    2.6027 H       1  UNL1        0.0000
     40 H           1.1076    7.4572    3.2157 H       1  UNL1        0.0000
     41 H          -0.2260    7.0659    4.2753 H       1  UNL1        0.0000
     42 H           3.5501    4.1506   -1.4143 H       1  UNL1        0.0000
     43 H           5.0669    3.7472   -0.6254 H       1  UNL1        0.0000
     44 H           4.8389    5.3304   -1.3363 H       1  UNL1        0.0000
     45 H           4.9203    5.9774    2.9268 H       1  UNL1        0.0000
     46 H           5.8354    6.3369    1.4783 H       1  UNL1        0.0000
     47 H           5.8068    4.7047    2.1124 H       1  UNL1        0.0000
     48 H           1.9576    6.7492   -0.1321 H       1  UNL1        0.0000
     49 H           3.5203    7.5324   -0.0514 H       1  UNL1        0.0000
     50 H           2.5349    7.3938    1.3884 H       1  UNL1        0.0000
     51 H           7.9011    2.7266    3.3470 H       1  UNL1        0.0000
     52 H           8.2447    2.1475    0.9722 H       1  UNL1        0.0000
     53 H           6.3330    1.3946   -0.3877 H       1  UNL1        0.0000
     54 H           4.8739    1.9787    5.2179 H       1  UNL1        0.0000
     55 H           5.2008    3.6724    4.8285 H       1  UNL1        0.0000
     56 H           6.5345    2.6193    5.3111 H       1  UNL1        0.0000
     57 H           4.0248    0.0985   -0.0979 H       1  UNL1        0.0000
     58 H           3.6536    1.7663   -0.5189 H       1  UNL1        0.0000
     59 H           2.8542    1.0206    0.8603 H       1  UNL1        0.0000
@<TRIPOS>BOND
     1    31     9    1
     2    32     9    1
     3    42    13    1
     4    44    13    1
     5     9    30    1
     6     9     2    1
     7    13    43    1
     8    13     4    1
     9    28     8    1
    10    58    23    1
    11    53    20    1
    12    29     8    1
    13    48    15    1
    14    57    23    1
    15    49    15    1
    16     8     2    1
    17     8    27    1
    18    23    59    1
    19    23    21    1
    20    15     4    1
    21    15    50    1
    22    20    21   ar
    23    20    19   ar
    24     2     7    1
    25     2     1    1
    26    26     7    1
    27     4    14    1
    28     4     1    1
    29    52    19    1
    30    21    16   ar
    31    19    18   ar
    32    46    14    1
    33     7    24    1
    34     7    25    1
    35    14    47    1
    36    14    45    1
    37     1     6    1
    38     1     3    1
    39    16     5    1
    40    16    17   ar
    41    39    12    1
    42    18    17   ar
    43    18    51    1
    44     6     5    1
    45    40    12    1
    46    17    22    1
    47    12     3    1
    48    12    41    1
    49     3    11    1
    50     3    10    1
    51    36    11    1
    52    33    10    1
    53    22    55    1
    54    22    54    1
    55    22    56    1
    56    38    11    1
    57    11    37    1
    58    10    34    1
    59    10    35    1
    60     1     5    0
    61     1    16    0
