@<TRIPOS>MOLECULE
1,2
 35 35 0 0 0
SMALL
GASTEIGER

@<TRIPOS>ATOM
      1 N          11.1479   12.2236   13.2423 N.pl3   1  UNL1       -0.2390
      2 C          11.3446   11.5906   14.3566 C.3     1  UNL1        0.1041
      3 C          10.2482   13.2977   13.0361 C.ar    1  UNL1        0.0543
      4 C           8.9314   13.0550   12.6177 C.ar    1  UNL1       -0.0276
      5 C          10.5207   12.0371   15.5591 C.3     1  UNL1       -0.0206
      6 C          11.1936   11.8039   16.9205 C.3     1  UNL1       -0.0356
      7 C          10.6951   14.6215   13.1659 C.ar    1  UNL1       -0.0276
      8 C          11.6911   10.3606   17.0249 C.3     1  UNL1       -0.0600
      9 C           8.3634   11.6657   12.5613 C.3     1  UNL1       -0.0379
     10 C           8.1177   14.1253   12.2763 C.ar    1  UNL1       -0.0570
     11 C          10.1843   12.0745   18.0403 C.3     1  UNL1       -0.0600
     12 C          12.0538   14.9232   13.7273 C.3     1  UNL1       -0.0379
     13 C           9.8545   15.6674   12.8188 C.ar    1  UNL1       -0.0570
     14 C           8.5731   15.4274   12.3592 C.ar    1  UNL1       -0.0611
     15 C          12.3643   12.7795   17.0516 C.3     1  UNL1       -0.0600
     16 H           9.5823   11.4744   15.5240 H       1  UNL1        0.0293
     17 H          10.2551   13.0988   15.4658 H       1  UNL1        0.0293
     18 H          10.8499    9.6735   17.0553 H       1  UNL1        0.0235
     19 H          12.2793   10.2251   17.9301 H       1  UNL1        0.0235
     20 H          12.3048   10.1105   16.1567 H       1  UNL1        0.0235
     21 H           7.9401   11.4678   11.5770 H       1  UNL1        0.0278
     22 H           7.5578   11.5687   13.2900 H       1  UNL1        0.0278
     23 H           9.1240   10.9164   12.7822 H       1  UNL1        0.0278
     24 H           7.1070   13.9269   11.9484 H       1  UNL1        0.0621
     25 H           9.7928   13.0876   17.9702 H       1  UNL1        0.0235
     26 H          10.6566   11.9577   19.0135 H       1  UNL1        0.0235
     27 H           9.3475   11.3814   17.9818 H       1  UNL1        0.0235
     28 H          12.5633   15.6719   13.1241 H       1  UNL1        0.0278
     29 H          12.6593   14.0176   13.7704 H       1  UNL1        0.0278
     30 H          11.9605   15.3187   14.7397 H       1  UNL1        0.0278
     31 H          10.2126   16.6820   12.9203 H       1  UNL1        0.0621
     32 H           7.9289   16.2492   12.0852 H       1  UNL1        0.0618
     33 H          12.0013   13.8048   17.0941 H       1  UNL1        0.0235
     34 H          13.0220   12.6851   16.1907 H       1  UNL1        0.0235
     35 H          12.9367   12.5838   17.9555 H       1  UNL1        0.0235
@<TRIPOS>BOND
     1    21     9    1
     2    24    10    1
     3    32    14    1
     4    10    14   ar
     5    10     4   ar
     6    14    13   ar
     7     9     4    1
     8     9    23    1
     9     9    22    1
    10     4     3   ar
    11    13    31    1
    12    13     7   ar
    13     3     7   ar
    14     3     1    1
    15    28    12    1
    16     7    12    1
    17     1     2    1
    18    12    29    1
    19    12    30    1
    20     2     5    1
    21    17     5    1
    22    16     5    1
    23     5     6    1
    24    20     8    1
    25    34    15    1
    26     6     8    1
    27     6    15    1
    28     6    11    1
    29     8    18    1
    30     8    19    1
    31    15    33    1
    32    15    35    1
    33    25    11    1
    34    27    11    1
    35    11    26    1
