@<TRIPOS>MOLECULE
5,6
 59 61 0 0 0
SMALL
GASTEIGER

@<TRIPOS>ATOM
      1 SI         11.0643    6.6315   12.9778 Si      1  UNL1        0.0000
      2 SI          9.6259    6.9712   14.8473 Si      1  UNL1        0.0000
      3 SI          9.6903    6.6169   11.0129 Si      1  UNL1        0.0000
      4 SI         12.0676    4.4731   13.2585 Si      1  UNL1        0.0000
      5 N          13.1825    8.5099   12.9633 N.pl3   1  UNL1        0.0000
      6 C          11.8999    8.3435   12.9494 C.3     1  UNL1        0.0000
      7 C          12.8161    3.7154   11.6633 C.3     1  UNL1        0.0000
      8 C          10.4893    6.6158   16.5242 C.3     1  UNL1        0.0000
      9 C           8.3756    8.0063   11.0485 C.3     1  UNL1        0.0000
     10 C          13.4104    4.3207   14.6154 C.3     1  UNL1        0.0000
     11 C           9.0222    8.7852   14.8775 C.3     1  UNL1        0.0000
     12 C           8.0446    5.8964   14.8261 C.3     1  UNL1        0.0000
     13 C           8.7133    4.9721   11.0158 C.3     1  UNL1        0.0000
     14 C          10.4923    6.6567    9.2660 C.3     1  UNL1        0.0000
     15 C          10.6924    3.2603   13.8223 C.3     1  UNL1        0.0000
     16 C          14.9525    7.3937   14.1561 C.ar    1  UNL1        0.0000
     17 C          16.5031    5.9799   12.9791 C.ar    1  UNL1        0.0000
     18 C          14.6199    6.9165   11.7960 C.ar    1  UNL1        0.0000
     19 C          14.2184    7.5640   12.9730 C.ar    1  UNL1        0.0000
     20 C          16.0924    6.6088   14.1427 C.ar    1  UNL1        0.0000
     21 C          15.7625    6.1311   11.8209 C.ar    1  UNL1        0.0000
     22 C          13.8419    7.0960   10.5273 C.3     1  UNL1        0.0000
     23 C          14.4589    8.0543   15.4055 C.3     1  UNL1        0.0000
     24 H          12.1425    3.8243   10.8181 H       1  UNL1        0.0000
     25 H          13.0126    2.6532   11.7843 H       1  UNL1        0.0000
     26 H          13.7563    4.1905   11.4039 H       1  UNL1        0.0000
     27 H          10.7940    5.5754   16.5861 H       1  UNL1        0.0000
     28 H           9.8381    6.8117   17.3723 H       1  UNL1        0.0000
     29 H          11.3794    7.2249   16.6496 H       1  UNL1        0.0000
     30 H           8.8424    8.9804   11.1392 H       1  UNL1        0.0000
     31 H           7.7086    7.8831   11.8959 H       1  UNL1        0.0000
     32 H           7.7637    8.0140   10.1500 H       1  UNL1        0.0000
     33 H          14.3550    4.7416   14.2905 H       1  UNL1        0.0000
     34 H          13.5889    3.2823   14.8833 H       1  UNL1        0.0000
     35 H          13.1149    4.8417   15.5210 H       1  UNL1        0.0000
     36 H           8.2145    8.9335   14.1684 H       1  UNL1        0.0000
     37 H           9.8454    9.4365   14.5853 H       1  UNL1        0.0000
     38 H           8.6594    9.0997   15.8525 H       1  UNL1        0.0000
     39 H           8.2829    4.8387   14.8108 H       1  UNL1        0.0000
     40 H           7.4383    6.1068   13.9509 H       1  UNL1        0.0000
     41 H           7.4249    6.0757   15.7003 H       1  UNL1        0.0000
     42 H           9.3688    4.1200   10.8669 H       1  UNL1        0.0000
     43 H           7.9696    4.9482   10.2246 H       1  UNL1        0.0000
     44 H           8.1910    4.8230   11.9545 H       1  UNL1        0.0000
     45 H          11.1303    5.7923    9.1040 H       1  UNL1        0.0000
     46 H          11.0969    7.5431    9.1047 H       1  UNL1        0.0000
     47 H           9.7302    6.6399    8.4899 H       1  UNL1        0.0000
     48 H           9.8421    3.2741   13.1499 H       1  UNL1        0.0000
     49 H          10.3301    3.5140   14.8136 H       1  UNL1        0.0000
     50 H          11.0565    2.2371   13.8633 H       1  UNL1        0.0000
     51 H          17.3944    5.3710   12.9774 H       1  UNL1        0.0000
     52 H          16.6608    6.4831   15.0533 H       1  UNL1        0.0000
     53 H          16.0810    5.6375   10.9137 H       1  UNL1        0.0000
     54 H          14.4745    6.9048    9.6632 H       1  UNL1        0.0000
     55 H          13.4421    8.1103   10.4613 H       1  UNL1        0.0000
     56 H          13.0047    6.4008   10.4982 H       1  UNL1        0.0000
     57 H          14.1847    9.0915   15.1879 H       1  UNL1        0.0000
     58 H          15.2146    8.0275   16.1862 H       1  UNL1        0.0000
     59 H          13.5680    7.5402   15.7688 H       1  UNL1        0.0000
@<TRIPOS>BOND
     1    47    14    1
     2    45    14    1
     3    46    14    1
     4    14     3    1
     5    54    22    1
     6    32     9    1
     7    43    13    1
     8    55    22    1
     9    56    22    1
    10    22    18    1
    11    24     7    1
    12    42    13    1
    13    53    21    1
    14     3    13    1
    15     3     9    1
    16     3     1    1
    17    13    44    1
    18     9    30    1
    19     9    31    1
    20    26     7    1
    21     7    25    1
    22     7     4    1
    23    18    21   ar
    24    18    19   ar
    25    21    17   ar
    26     6     5    1
    27     6     1    1
    28     5    19    1
    29    19    16   ar
    30    51    17    1
    31     1     4    1
    32     1     2    1
    33    17    20   ar
    34    48    15    1
    35     4    15    1
    36     4    10    1
    37    15    50    1
    38    15    49    1
    39    40    12    1
    40    20    16   ar
    41    20    52    1
    42    16    23    1
    43    36    11    1
    44    33    10    1
    45    37    11    1
    46    10    34    1
    47    10    35    1
    48    39    12    1
    49    12     2    1
    50    12    41    1
    51     2    11    1
    52     2     8    1
    53    11    38    1
    54    57    23    1
    55    23    59    1
    56    23    58    1
    57     8    27    1
    58     8    29    1
    59     8    28    1
    60     1     5    0
    61     1    19    0
