@<TRIPOS>MOLECULE
2
 44 44 0 0 0
SMALL
GASTEIGER

@<TRIPOS>ATOM
      1 SI          5.0005   10.0312    6.4297 Si      1  UNL1        0.0000
      2 N           5.3174   10.0141    4.7014 N.3     1  UNL1        0.0000
      3 C           7.9293    9.5754    6.8581 C.3     1  UNL1        0.0000
      4 C           9.1193   10.2839    6.5524 C.2     1  UNL1        0.0000
      5 C           8.7777   11.6037    6.2035 C.2     1  UNL1        0.0000
      6 C           7.3580   11.7222    6.2667 C.3     1  UNL1        0.0000
      7 C           6.8277   10.4648    6.7492 C.3     1  UNL1        0.0000
      8 C           7.9020    8.1843    7.4164 C.3     1  UNL1        0.0000
      9 H           6.8913    7.7912    7.4390 H       1  UNL1        0.0000
     10 H           8.2838    8.1961    8.4397 H       1  UNL1        0.0000
     11 H           8.5292    7.4978    6.8458 H       1  UNL1        0.0000
     12 C          10.5201    9.7648    6.6841 C.3     1  UNL1        0.0000
     13 H          10.9977   10.2035    7.5620 H       1  UNL1        0.0000
     14 H          11.1249   10.0284    5.8157 H       1  UNL1        0.0000
     15 H          10.5351    8.6827    6.8012 H       1  UNL1        0.0000
     16 C           9.7766   12.6996    5.9973 C.3     1  UNL1        0.0000
     17 H          10.6294   12.3486    5.4185 H       1  UNL1        0.0000
     18 H          10.1509   13.0371    6.9663 H       1  UNL1        0.0000
     19 H           9.3424   13.5569    5.4892 H       1  UNL1        0.0000
     20 C           6.5914   13.0152    6.3233 C.3     1  UNL1        0.0000
     21 H           6.2089   13.1629    7.3340 H       1  UNL1        0.0000
     22 H           5.7458   13.0085    5.6361 H       1  UNL1        0.0000
     23 H           7.2309   13.8615    6.0858 H       1  UNL1        0.0000
     24 C           3.7733   11.3626    7.0761 C.3     1  UNL1        0.0000
     25 H           4.0541   11.6874    8.0723 H       1  UNL1        0.0000
     26 H           2.7720   10.9507    7.1466 H       1  UNL1        0.0000
     27 H           3.7214   12.2434    6.4460 H       1  UNL1        0.0000
     28 C           4.4005    8.3966    7.2302 C.3     1  UNL1        0.0000
     29 H           3.3171    8.3466    7.2176 H       1  UNL1        0.0000
     30 H           4.7093    8.3383    8.2690 H       1  UNL1        0.0000
     31 H           4.7682    7.5150    6.7173 H       1  UNL1        0.0000
     32 C           4.2953    9.8524    3.6790 C.3     1  UNL1        0.0000
     33 C           3.8382   11.2378    3.1890 C.3     1  UNL1        0.0000
     34 H           3.0234   11.1361    2.4767 H       1  UNL1        0.0000
     35 H           4.6626   11.7569    2.7053 H       1  UNL1        0.0000
     36 H           3.4917   11.8287    4.0335 H       1  UNL1        0.0000
     37 C           3.0730    9.0981    4.2202 C.3     1  UNL1        0.0000
     38 H           2.3514    8.9414    3.4222 H       1  UNL1        0.0000
     39 H           2.5938    9.6677    5.0096 H       1  UNL1        0.0000
     40 H           3.3716    8.1312    4.6132 H       1  UNL1        0.0000
     41 C           4.8365    9.0518    2.4809 C.3     1  UNL1        0.0000
     42 H           4.0586    8.9558    1.7265 H       1  UNL1        0.0000
     43 H           5.1229    8.0486    2.7918 H       1  UNL1        0.0000
     44 H           5.6887    9.5495    2.0202 H       1  UNL1        0.0000
@<TRIPOS>BOND
     1    42    41    1
     2    44    41    1
     3    34    33    1
     4    41    43    1
     5    41    32    1
     6    35    33    1
     7    33    32    1
     8    33    36    1
     9    38    37    1
    10    32    37    1
    11    32     2    1
    12    37    40    1
    13    37    39    1
    14     2     1    1
    15    17    16    1
    16    19    16    1
    17    22    20    1
    18    14    12    1
    19    16     5    1
    20    16    18    1
    21    23    20    1
    22     5     6    1
    23     5     4    2
    24     6    20    1
    25     6     7    1
    26    20    21    1
    27     1     7    1
    28     1    24    1
    29     1    28    1
    30    27    24    1
    31     4    12    1
    32     4     3    1
    33    12    15    1
    34    12    13    1
    35    31    28    1
    36     7     3    1
    37    11     8    1
    38     3     8    1
    39    24    26    1
    40    24    25    1
    41    29    28    1
    42    28    30    1
    43     8     9    1
    44     8    10    1
