@<TRIPOS>MOLECULE
2,3
 43 44 0 0 0
SMALL
GASTEIGER

@<TRIPOS>ATOM
      1 SI          2.5179   -2.6933    5.1960 Si      1  UNL1        0.0000
      2 N           0.1239   -0.1574    4.8983 N.3     1  UNL1        0.0000
      3 C           1.3365   -0.2884    4.4906 C.3     1  UNL1        0.0000
      4 C           1.9412   -1.4346    3.8731 C.2     1  UNL1        0.0000
      5 C           2.0630   -1.5190    2.5330 C.2     1  UNL1        0.0000
      6 C           2.7695   -2.5223    1.7574 C.ar    1  UNL1        0.0000
      7 C           4.0099   -3.0316    2.1406 C.ar    1  UNL1        0.0000
      8 C           4.6586   -3.9712    1.3619 C.ar    1  UNL1        0.0000
      9 C           4.0848   -4.4214    0.1842 C.ar    1  UNL1        0.0000
     10 C           2.8632   -3.9070   -0.2206 C.ar    1  UNL1        0.0000
     11 C           2.2187   -2.9602    0.5499 C.ar    1  UNL1        0.0000
     12 C           1.3892   -2.5550    6.7397 C.3     1  UNL1        0.0000
     13 C           4.3217   -2.3157    5.7285 C.3     1  UNL1        0.0000
     14 C           2.3172   -4.4812    4.5606 C.3     1  UNL1        0.0000
     15 C          -0.9383   -1.1410    4.6396 C.3     1  UNL1        0.0000
     16 C          -1.5710   -0.8125    3.3147 C.ar    1  UNL1        0.0000
     17 C          -1.3498   -1.6097    2.1988 C.ar    1  UNL1        0.0000
     18 C          -1.8918   -1.2604    0.9738 C.ar    1  UNL1        0.0000
     19 C          -2.6540   -0.1108    0.8526 C.ar    1  UNL1        0.0000
     20 C          -2.8787    0.6868    1.9630 C.ar    1  UNL1        0.0000
     21 C          -2.3398    0.3411    3.1901 C.ar    1  UNL1        0.0000
     22 H           1.5503   -0.7720    1.9316 H       1  UNL1        0.0000
     23 H           4.4753   -2.6596    3.0393 H       1  UNL1        0.0000
     24 H           5.6223   -4.3508    1.6709 H       1  UNL1        0.0000
     25 H           4.5919   -5.1579   -0.4212 H       1  UNL1        0.0000
     26 H           2.4162   -4.2435   -1.1451 H       1  UNL1        0.0000
     27 H           1.2689   -2.5562    0.2280 H       1  UNL1        0.0000
     28 H           0.9745   -1.5567    6.8668 H       1  UNL1        0.0000
     29 H           0.5551   -3.2489    6.6819 H       1  UNL1        0.0000
     30 H           1.9401   -2.7981    7.6439 H       1  UNL1        0.0000
     31 H           5.0047   -3.0713    5.3528 H       1  UNL1        0.0000
     32 H           4.6652   -1.3506    5.3650 H       1  UNL1        0.0000
     33 H           4.4188   -2.3119    6.8102 H       1  UNL1        0.0000
     34 H           1.3193   -4.6580    4.1702 H       1  UNL1        0.0000
     35 H           3.0202   -4.7198    3.7713 H       1  UNL1        0.0000
     36 H           2.4804   -5.1828    5.3728 H       1  UNL1        0.0000
     37 H          -1.6737   -1.0537    5.4470 H       1  UNL1        0.0000
     38 H          -0.5118   -2.1518    4.6180 H       1  UNL1        0.0000
     39 H          -0.7516   -2.5057    2.2890 H       1  UNL1        0.0000
     40 H          -1.7188   -1.8877    0.1112 H       1  UNL1        0.0000
     41 H          -3.0733    0.1615   -0.1047 H       1  UNL1        0.0000
     42 H          -3.4777    1.5808    1.8717 H       1  UNL1        0.0000
     43 H          -2.5166    0.9569    4.0619 H       1  UNL1        0.0000
@<TRIPOS>BOND
     1    26    10    1
     2    25     9    1
     3    10     9   ar
     4    10    11   ar
     5    41    19    1
     6    40    18    1
     7     9     8   ar
     8    27    11    1
     9    11     6   ar
    10    19    18   ar
    11    19    20   ar
    12    18    17   ar
    13     8    24    1
    14     8     7   ar
    15     6     7   ar
    16     6     5    1
    17    42    20    1
    18    22     5    1
    19    20    21   ar
    20     7    23    1
    21    17    39    1
    22    17    16   ar
    23     5     4    2
    24    21    16   ar
    25    21    43    1
    26    16    15    1
    27    35    14    1
    28     4     3    1
    29     4     1    1
    30    34    14    1
    31     3     2    1
    32    14     1    1
    33    14    36    1
    34    38    15    1
    35    15     2    1
    36    15    37    1
    37     1    13    1
    38     1    12    1
    39    31    13    1
    40    32    13    1
    41    13    33    1
    42    29    12    1
    43    12    28    1
    44    12    30    1
