@<TRIPOS>MOLECULE
2,3
 34 37 0 0 0
SMALL
GASTEIGER

@<TRIPOS>ATOM
      1 C           0.7660    9.9012   15.6747 C.ar    1  UNL1       -0.0135
      2 N          -1.6079    8.0405   19.3670 N.pl3   1  UNL1       -0.2451
      3 C          -0.8059   10.0412   17.4095 C.3     1  UNL1        0.0379
      4 C          -2.2327    9.8841   17.9102 C.3     1  UNL1       -0.0090
      5 H          -2.4350   10.6658   18.6524 H       1  UNL1        0.0302
      6 H          -2.9354   10.0346   17.0800 H       1  UNL1        0.0302
      7 C          -0.2404    9.1808   16.3917 C.ar    1  UNL1       -0.0279
      8 C           1.4891    9.2792   14.6631 C.ar    1  UNL1       -0.0537
      9 H           2.2484    9.8237   14.1170 H       1  UNL1        0.0624
     10 C          -2.5290    8.5582   18.5488 C.3     1  UNL1        0.0989
     11 C           1.2112    7.9653   14.3461 C.ar    1  UNL1       -0.0612
     12 H           1.7643    7.4706   13.5605 H       1  UNL1        0.0618
     13 C          -0.4395   12.5804   17.8146 C.ar    1  UNL1       -0.0571
     14 H          -1.1981   12.6860   18.5812 H       1  UNL1        0.0621
     15 C           1.5080   12.3665   15.7904 C.ar    1  UNL1       -0.0537
     16 H           2.2379   12.2970   14.9946 H       1  UNL1        0.0624
     17 C           0.7827   11.2455   16.1746 C.ar    1  UNL1       -0.0135
     18 C          -0.2012   11.3393   17.2100 C.ar    1  UNL1       -0.0279
     19 C          -0.5211    7.8573   16.0300 C.ar    1  UNL1       -0.0571
     20 H          -1.3052    7.3013   16.5304 H       1  UNL1        0.0621
     21 C          -1.8559    6.8743   19.9572 C.2     1  UNL1        0.0125
     22 H          -1.0726    6.4952   20.6029 H       1  UNL1        0.0797
     23 C           0.2056    7.2680   15.0183 C.ar    1  UNL1       -0.0614
     24 H          -0.0066    6.2469   14.7333 H       1  UNL1        0.0618
     25 C          -3.7385    7.9056   18.3117 C.2     1  UNL1       -0.0567
     26 H          -4.4638    8.3460   17.6444 H       1  UNL1        0.0595
     27 C          -3.9928    6.6967   18.9304 C.2     1  UNL1       -0.0623
     28 H          -4.9227    6.1756   18.7567 H       1  UNL1        0.0616
     29 C           0.2958   13.6756   17.4156 C.ar    1  UNL1       -0.0614
     30 H           0.1155   14.6374   17.8760 H       1  UNL1        0.0618
     31 C          -3.0283    6.1645   19.7747 C.2     1  UNL1       -0.0466
     32 H          -3.1815    5.2219   20.2753 H       1  UNL1        0.0630
     33 C           1.2661   13.5737   16.4154 C.ar    1  UNL1       -0.0612
     34 H           1.8180   14.4561   16.1232 H       1  UNL1        0.0618
@<TRIPOS>BOND
     1    12    11    1
     2     9     8    1
     3    11     8   ar
     4    11    23   ar
     5     8     1   ar
     6    24    23    1
     7    16    15    1
     8    23    19   ar
     9     1    17    1
    10     1     7   ar
    11    15    17   ar
    12    15    33   ar
    13    19     7   ar
    14    19    20    1
    15    34    33    1
    16    17    18   ar
    17     7     3    1
    18    33    29   ar
    19     6     4    1
    20    18     3    1
    21    18    13   ar
    22     3     4    1
    23    29    13   ar
    24    29    30    1
    25    26    25    1
    26    13    14    1
    27     4    10    1
    28     4     5    1
    29    25    10    1
    30    25    27    2
    31    10     2    1
    32    28    27    1
    33    27    31    1
    34     2    21    1
    35    31    21    2
    36    31    32    1
    37    21    22    1
