@<TRIPOS>MOLECULE
2,13
 57 56 0 0 0
SMALL
GASTEIGER

@<TRIPOS>ATOM
      1 SI          3.5148    4.0519    2.6716 Si      1  UNL1        0.0000
      2 N           1.9800    4.6472    3.2033 N.3     1  UNL1        0.0000
      3 C           0.3965    6.2260    3.7694 C.3     1  UNL1        0.0000
      4 H           0.2205    6.3858    2.7064 H       1  UNL1        0.0000
      5 C           1.5076    5.5004    4.1272 C.3     1  UNL1        0.0000
      6 C          -0.4028    7.1443    4.6492 C.3     1  UNL1        0.0000
      7 C          -0.1972    8.6085    4.2436 C.3     1  UNL1        0.0000
      8 C           2.1225    5.5875    5.5087 C.3     1  UNL1        0.0000
      9 C           2.8392    6.9168    5.7528 C.3     1  UNL1        0.0000
     10 C           2.6815    2.5335    1.7730 C.3     1  UNL1        0.0000
     11 C           3.3792    2.0911    0.4821 C.3     1  UNL1        0.0000
     12 C           2.5821    1.3056    2.6743 C.3     1  UNL1        0.0000
     13 C           1.2536    2.9629    1.4701 C.3     1  UNL1        0.0000
     14 H           1.2640    3.6790    0.6482 H       1  UNL1        0.0000
     15 H           0.6827    2.0855    1.1475 H       1  UNL1        0.0000
     16 C           4.1637    5.4757    1.4584 C.3     1  UNL1        0.0000
     17 C           5.5332    5.2218    0.8276 C.3     1  UNL1        0.0000
     18 C           3.1765    5.6726    0.3074 C.3     1  UNL1        0.0000
     19 C           4.2052    6.8104    2.2095 C.3     1  UNL1        0.0000
     20 C           4.9974    3.4898    3.8594 C.3     1  UNL1        0.0000
     21 C           4.5583    2.6740    5.0795 C.3     1  UNL1        0.0000
     22 C           5.9769    2.6111    3.0707 C.3     1  UNL1        0.0000
     23 C           5.7832    4.6829    4.4113 C.3     1  UNL1        0.0000
     24 H          -0.1378    7.0127    5.6997 H       1  UNL1        0.0000
     25 H          -1.4702    6.9164    4.5494 H       1  UNL1        0.0000
     26 H          -0.7651    9.2671    4.8972 H       1  UNL1        0.0000
     27 H           0.8536    8.8857    4.3015 H       1  UNL1        0.0000
     28 H          -0.5317    8.7720    3.2208 H       1  UNL1        0.0000
     29 H           2.8361    4.7722    5.6091 H       1  UNL1        0.0000
     30 H           1.3558    5.4582    6.2742 H       1  UNL1        0.0000
     31 H           3.3567    6.8841    6.7100 H       1  UNL1        0.0000
     32 H           3.5702    7.1128    4.9730 H       1  UNL1        0.0000
     33 H           2.1371    7.7450    5.7776 H       1  UNL1        0.0000
     34 H           2.8328    1.2644    0.0261 H       1  UNL1        0.0000
     35 H           3.4347    2.8923   -0.2478 H       1  UNL1        0.0000
     36 H           4.3913    1.7510    0.6883 H       1  UNL1        0.0000
     37 H           2.0470    0.5138    2.1472 H       1  UNL1        0.0000
     38 H           3.5567    0.9115    2.9465 H       1  UNL1        0.0000
     39 H           2.0189    1.5745    3.5647 H       1  UNL1        0.0000
     40 H           5.7555    6.0075    0.1037 H       1  UNL1        0.0000
     41 H           6.3299    5.2269    1.5652 H       1  UNL1        0.0000
     42 H           5.5487    4.2704    0.3020 H       1  UNL1        0.0000
     43 H           3.4214    6.5787   -0.2488 H       1  UNL1        0.0000
     44 H           3.2005    4.8433   -0.3920 H       1  UNL1        0.0000
     45 H           2.1706    5.7745    0.6957 H       1  UNL1        0.0000
     46 H           4.4972    7.6146    1.5326 H       1  UNL1        0.0000
     47 H           3.2215    7.0486    2.6093 H       1  UNL1        0.0000
     48 H           4.9167    6.7939    3.0281 H       1  UNL1        0.0000
     49 H           5.4416    2.2990    5.5985 H       1  UNL1        0.0000
     50 H           4.0039    3.2815    5.7876 H       1  UNL1        0.0000
     51 H           3.9436    1.8260    4.8101 H       1  UNL1        0.0000
     52 H           6.8399    2.3723    3.6931 H       1  UNL1        0.0000
     53 H           5.5123    1.6749    2.7774 H       1  UNL1        0.0000
     54 H           6.3380    3.1066    2.1771 H       1  UNL1        0.0000
     55 H           6.5481    4.3304    5.1047 H       1  UNL1        0.0000
     56 H           6.2884    5.2332    3.6246 H       1  UNL1        0.0000
     57 H           5.1339    5.3642    4.9532 H       1  UNL1        0.0000
@<TRIPOS>BOND
     1    44    18    1
     2    43    18    1
     3    35    11    1
     4    34    11    1
     5    40    17    1
     6    42    17    1
     7    18    45    1
     8    18    16    1
     9    11    36    1
    10    11    10    1
    11    14    13    1
    12    17    16    1
    13    17    41    1
    14    15    13    1
    15    16    19    1
    16    16     1    1
    17    13    10    1
    18    46    19    1
    19    10     1    1
    20    10    12    1
    21    37    12    1
    22    54    22    1
    23    19    47    1
    24    19    48    1
    25     1     2    1
    26     1    20    1
    27    12    38    1
    28    12    39    1
    29     4     3    1
    30    53    22    1
    31    22    52    1
    32    22    20    1
    33     2     5    1
    34    28     7    1
    35    56    23    1
    36     3     5    1
    37     3     6    1
    38    20    23    1
    39    20    21    1
    40     5     8    1
    41     7    27    1
    42     7     6    1
    43     7    26    1
    44    23    57    1
    45    23    55    1
    46    25     6    1
    47     6    24    1
    48    51    21    1
    49    32     9    1
    50    21    49    1
    51    21    50    1
    52     8    29    1
    53     8     9    1
    54     8    30    1
    55     9    33    1
    56     9    31    1
