@<TRIPOS>MOLECULE
2,8
 60 59 0 0 0
SMALL
GASTEIGER

@<TRIPOS>ATOM
      1 SI          0.1732    8.6579    5.1948 Si      1  UNL1        0.0000
      2 N           1.7538    5.8946    3.0840 N.3     1  UNL1        0.0000
      3 N           1.4365    8.8854    1.1280 N.3     1  UNL1        0.0000
      4 N           3.7236    8.6632    3.8159 N.2     1  UNL1        0.0000
      5 C           2.0353    7.2786    2.9623 C.3     1  UNL1        0.0000
      6 C           2.6818    8.0098    4.1077 C.2     1  UNL1        0.0000
      7 C           1.9194    7.8158    5.3669 C.3     1  UNL1        0.0000
      8 C          -0.8482    7.8059    3.8748 C.3     1  UNL1        0.0000
      9 C           2.9245    5.0153    3.0084 C.3     1  UNL1        0.0000
     10 C           2.4741    3.6488    2.4566 C.3     1  UNL1        0.0000
     11 C           3.5740    4.8288    4.3975 C.3     1  UNL1        0.0000
     12 C           3.9926    5.5807    2.0559 C.3     1  UNL1        0.0000
     13 C           1.8210    8.0277    1.9040 C.3     1  UNL1        0.0000
     14 C           2.1837    9.4909    0.0437 C.3     1  UNL1        0.0000
     15 C           2.2532   10.9856    0.3725 C.3     1  UNL1        0.0000
     16 C           1.3829    9.2663   -1.2413 C.3     1  UNL1        0.0000
     17 C           3.5938    8.9104   -0.0788 C.3     1  UNL1        0.0000
     18 C           4.6117    9.4077    4.6829 C.3     1  UNL1        0.0000
     19 C           3.9257   10.5455    5.4480 C.3     1  UNL1        0.0000
     20 C           5.6563   10.0183    3.7343 C.3     1  UNL1        0.0000
     21 C           5.3287    8.4659    5.6621 C.3     1  UNL1        0.0000
     22 C          -0.5625    8.5884    6.9693 C.3     1  UNL1        0.0000
     23 C           0.4514   10.5174    4.8076 C.3     1  UNL1        0.0000
     24 H           2.4588    8.1767    6.2391 H       1  UNL1        0.0000
     25 H           1.7379    6.7444    5.4800 H       1  UNL1        0.0000
     26 H          -0.7769    8.4160    2.9633 H       1  UNL1        0.0000
     27 H          -1.9120    7.7900    4.1582 H       1  UNL1        0.0000
     28 H           3.2694    2.9157    2.5817 H       1  UNL1        0.0000
     29 H           2.2551    3.7347    1.3932 H       1  UNL1        0.0000
     30 H           1.5807    3.2931    2.9753 H       1  UNL1        0.0000
     31 H           3.9664    5.7801    4.7479 H       1  UNL1        0.0000
     32 H           4.3974    4.1195    4.3415 H       1  UNL1        0.0000
     33 H           2.8440    4.4642    5.1182 H       1  UNL1        0.0000
     34 H           4.8103    4.8713    1.9507 H       1  UNL1        0.0000
     35 H           4.3842    6.5204    2.4370 H       1  UNL1        0.0000
     36 H           3.5583    5.7630    1.0750 H       1  UNL1        0.0000
     37 H           2.7336   11.5280   -0.4378 H       1  UNL1        0.0000
     38 H           2.8239   11.1345    1.2861 H       1  UNL1        0.0000
     39 H           1.2522   11.3829    0.5206 H       1  UNL1        0.0000
     40 H           1.8794    9.7472   -2.0802 H       1  UNL1        0.0000
     41 H           0.3839    9.6824   -1.1380 H       1  UNL1        0.0000
     42 H           1.2930    8.2023   -1.4493 H       1  UNL1        0.0000
     43 H           4.1673    9.4585   -0.8223 H       1  UNL1        0.0000
     44 H           3.5476    7.8645   -0.3743 H       1  UNL1        0.0000
     45 H           4.0972    8.9734    0.8838 H       1  UNL1        0.0000
     46 H           4.6765   11.1452    5.9587 H       1  UNL1        0.0000
     47 H           3.2250   10.1677    6.1856 H       1  UNL1        0.0000
     48 H           3.3855   11.1830    4.7529 H       1  UNL1        0.0000
     49 H           6.4115   10.5674    4.2910 H       1  UNL1        0.0000
     50 H           5.1696   10.6957    3.0374 H       1  UNL1        0.0000
     51 H           6.1401    9.2310    3.1623 H       1  UNL1        0.0000
     52 H           4.6291    8.0149    6.3612 H       1  UNL1        0.0000
     53 H           6.0754    9.0179    6.2284 H       1  UNL1        0.0000
     54 H           5.8271    7.6704    5.1117 H       1  UNL1        0.0000
     55 H           0.0114    9.2001    7.6581 H       1  UNL1        0.0000
     56 H          -0.5876    7.5812    7.3706 H       1  UNL1        0.0000
     57 H          -1.5778    8.9698    6.9719 H       1  UNL1        0.0000
     58 H           0.9541   11.0475    5.6095 H       1  UNL1        0.0000
     59 H          -0.4978   11.0156    4.6362 H       1  UNL1        0.0000
     60 H           1.0457   10.6272    3.9056 H       1  UNL1        0.0000
@<TRIPOS>BOND
     1    40    16    1
     2    42    16    1
     3    16    41    1
     4    16    14    1
     5    43    17    1
     6    37    15    1
     7    44    17    1
     8    17    14    1
     9    17    45    1
    10    14    15    1
    11    14     3    1
    12    15    39    1
    13    15    38    1
    14    36    12    1
    15     3    13    1
    16    29    10    1
    17    13     5    1
    18    34    12    1
    19    12    35    1
    20    12     9    1
    21    10    28    1
    22    10    30    1
    23    10     9    1
    24     5     2    1
    25     5     6    1
    26    26     8    1
    27     9     2    1
    28     9    11    1
    29    50    20    1
    30    51    20    1
    31    20    49    1
    32    20    18    1
    33     4     6    2
    34     4    18    1
    35     8    27    1
    36     8     1    1
    37    60    23    1
    38     6     7    1
    39    32    11    1
    40    11    31    1
    41    11    33    1
    42    59    23    1
    43    18    19    1
    44    18    21    1
    45    48    19    1
    46    23     1    1
    47    23    58    1
    48    54    21    1
    49     1     7    1
    50     1    22    1
    51     7    25    1
    52     7    24    1
    53    19    46    1
    54    19    47    1
    55    21    53    1
    56    21    52    1
    57    22    57    1
    58    22    56    1
    59    22    55    1
