@<TRIPOS>MOLECULE
3,11
 50 51 0 0 0
SMALL
GASTEIGER

@<TRIPOS>ATOM
      1 SI          3.8313   13.6667    0.4694 Si      1  UNL1        0.0000
      2 SI          3.0675   11.1560    2.0074 Si      1  UNL1        0.0000
      3 N           3.9224   12.6654    1.8833 N.3     1  UNL1        0.0000
      4 C           3.0713   10.6046    3.8350 C.3     1  UNL1        0.0000
      5 C           3.8281    9.7839    0.9079 C.3     1  UNL1        0.0000
      6 C           1.2231   11.3476    1.5117 C.3     1  UNL1        0.0000
      7 C           3.4990   12.7172   -1.1583 C.3     1  UNL1        0.0000
      8 C           5.5075   14.5467    0.2072 C.3     1  UNL1        0.0000
      9 C           2.5003   15.0442    0.6061 C.3     1  UNL1        0.0000
     10 C           6.0284   15.2843    1.4052 C.2     1  UNL1        0.0000
     11 C           5.9398   14.8765    2.6756 C.2     1  UNL1        0.0000
     12 C           6.7206   16.5578    1.0742 C.ar    1  UNL1        0.0000
     13 C           8.0693   16.7379    1.3636 C.ar    1  UNL1        0.0000
     14 C           8.7020   17.9284    1.0570 C.ar    1  UNL1        0.0000
     15 C           7.9960   18.9593    0.4605 C.ar    1  UNL1        0.0000
     16 C           6.6532   18.7900    0.1674 C.ar    1  UNL1        0.0000
     17 C           6.0220   17.5970    0.4668 C.ar    1  UNL1        0.0000
     18 C           6.5182   15.7283    3.7201 C.ar    1  UNL1        0.0000
     19 C           7.6405   15.3202    4.4416 C.ar    1  UNL1        0.0000
     20 C           8.2036   16.1460    5.3969 C.ar    1  UNL1        0.0000
     21 C           7.6489   17.3878    5.6625 C.ar    1  UNL1        0.0000
     22 C           6.5277   17.8013    4.9612 C.ar    1  UNL1        0.0000
     23 C           5.9703   16.9848    3.9964 C.ar    1  UNL1        0.0000
     24 H           2.7917    9.5587    3.9215 H       1  UNL1        0.0000
     25 H           4.0524   10.7322    4.2838 H       1  UNL1        0.0000
     26 H           2.3534   11.1780    4.4169 H       1  UNL1        0.0000
     27 H           3.5077    8.8009    1.2390 H       1  UNL1        0.0000
     28 H           3.5181    9.8950   -0.1256 H       1  UNL1        0.0000
     29 H           4.9130    9.8043    0.9327 H       1  UNL1        0.0000
     30 H           0.6785   11.9762    2.2103 H       1  UNL1        0.0000
     31 H           1.1137   11.7841    0.5253 H       1  UNL1        0.0000
     32 H           0.7336   10.3792    1.4978 H       1  UNL1        0.0000
     33 H           2.5347   12.2239   -1.1496 H       1  UNL1        0.0000
     34 H           3.5092   13.3979   -2.0031 H       1  UNL1        0.0000
     35 H           4.2545   11.9606   -1.3390 H       1  UNL1        0.0000
     36 H           6.2605   13.8242   -0.1144 H       1  UNL1        0.0000
     37 H           5.4044   15.2500   -0.6210 H       1  UNL1        0.0000
     38 H           2.7180   15.7217    1.4276 H       1  UNL1        0.0000
     39 H           2.4729   15.6291   -0.3083 H       1  UNL1        0.0000
     40 H           1.5052   14.6389    0.7597 H       1  UNL1        0.0000
     41 H           8.6228   15.9345    1.8278 H       1  UNL1        0.0000
     42 H           9.7508   18.0536    1.2850 H       1  UNL1        0.0000
     43 H           8.4893   19.8911    0.2249 H       1  UNL1        0.0000
     44 H           6.0963   19.5924   -0.2962 H       1  UNL1        0.0000
     45 H           4.9710   17.4710    0.2450 H       1  UNL1        0.0000
     46 H           8.0654   14.3461    4.2368 H       1  UNL1        0.0000
     47 H           9.0822   15.8234    5.9376 H       1  UNL1        0.0000
     48 H           8.0907   18.0311    6.4094 H       1  UNL1        0.0000
     49 H           6.0930   18.7700    5.1624 H       1  UNL1        0.0000
     50 H           5.1045   17.3158    3.4377 H       1  UNL1        0.0000
@<TRIPOS>BOND
     1    34     7    1
     2    35     7    1
     3     7    33    1
     4     7     1    1
     5    37     8    1
     6    39     9    1
     7    44    16    1
     8    28     5    1
     9    36     8    1
    10    16    15   ar
    11    16    17   ar
    12     8     1    1
    13     8    10    1
    14    43    15    1
    15    45    17    1
    16    15    14   ar
    17    17    12   ar
    18     1     9    1
    19     1     3    1
    20    31     6    1
    21     9    40    1
    22     9    38    1
    23     5    29    1
    24     5    27    1
    25     5     2    1
    26    14    42    1
    27    14    13   ar
    28    12    13   ar
    29    12    10    1
    30    13    41    1
    31    10    11    2
    32    32     6    1
    33     6     2    1
    34     6    30    1
    35     3     2    1
    36     2     4    1
    37    11    18    1
    38    50    23    1
    39    18    23   ar
    40    18    19   ar
    41     4    24    1
    42     4    25    1
    43     4    26    1
    44    23    22   ar
    45    46    19    1
    46    19    20   ar
    47    22    49    1
    48    22    21   ar
    49    20    21   ar
    50    20    47    1
    51    21    48    1
