@<TRIPOS>MOLECULE
1,3
 28 28 0 0 0
SMALL
GASTEIGER

@<TRIPOS>ATOM
      1 N           0.6104   12.0323   14.6593 N.pl3   1  UNL1       -0.2204
      2 N           2.0441   13.7849   13.9985 N.3     1  UNL1       -0.2807
      3 C           1.1283   12.8162   13.7357 C.3     1  UNL1        0.1855
      4 C           2.6684   14.4707   12.8893 C.3     1  UNL1       -0.0109
      5 C           2.4647   14.2897   15.2924 C.3     1  UNL1       -0.0109
      6 C           1.0862   11.8071   15.9608 C.ar    1  UNL1        0.0560
      7 C           0.2725   12.0001   17.0908 C.ar    1  UNL1       -0.0276
      8 C           0.7643   11.7027   18.3532 C.ar    1  UNL1       -0.0570
      9 C           2.0356   11.1912   18.5289 C.ar    1  UNL1       -0.0611
     10 C           2.8170   10.9398   17.4149 C.ar    1  UNL1       -0.0570
     11 C           2.3604   11.2302   16.1420 C.ar    1  UNL1       -0.0276
     12 C          -1.1317   12.5154   16.9700 C.3     1  UNL1       -0.0379
     13 C           3.1943   10.8833   14.9464 C.3     1  UNL1       -0.0379
     14 H           3.7554   14.3409   12.9290 H       1  UNL1        0.0391
     15 H           2.4553   15.5438   12.9222 H       1  UNL1        0.0391
     16 H           2.2969   14.0660   11.9474 H       1  UNL1        0.0391
     17 H           2.4864   15.3822   15.2548 H       1  UNL1        0.0391
     18 H           3.4636   13.9349   15.5664 H       1  UNL1        0.0391
     19 H           1.7657   13.9829   16.0654 H       1  UNL1        0.0391
     20 H           0.1300   11.8749   19.2122 H       1  UNL1        0.0621
     21 H           2.4064   10.9716   19.5190 H       1  UNL1        0.0618
     22 H           3.8006   10.5065   17.5358 H       1  UNL1        0.0621
     23 H          -1.4320   12.5560   15.9260 H       1  UNL1        0.0278
     24 H          -1.2143   13.5113   17.4063 H       1  UNL1        0.0278
     25 H          -1.8126   11.8599   17.5120 H       1  UNL1        0.0278
     26 H           3.9980   10.2058   15.2268 H       1  UNL1        0.0278
     27 H           3.6405   11.7692   14.4960 H       1  UNL1        0.0278
     28 H           2.5584   10.4066   14.1972 H       1  UNL1        0.0278
@<TRIPOS>BOND
     1    16     4    1
     2     4    15    1
     3     4    14    1
     4     4     2    1
     5     3     2    1
     6     3     1    1
     7     2     5    1
     8    28    13    1
     9    27    13    1
    10     1     6    1
    11    13    26    1
    12    13    11    1
    13    17     5    1
    14     5    18    1
    15     5    19    1
    16    23    12    1
    17     6    11   ar
    18     6     7   ar
    19    11    10   ar
    20    12     7    1
    21    12    24    1
    22    12    25    1
    23     7     8   ar
    24    10    22    1
    25    10     9   ar
    26     8     9   ar
    27     8    20    1
    28     9    21    1
