@<TRIPOS>MOLECULE
1,3
 28 28 0 0 0
SMALL
GASTEIGER

@<TRIPOS>ATOM
      1 N          -0.3402   12.8956   10.7821 N.pl3   1  UNL1       -0.2204
      2 N          -2.1974   12.4343    9.4354 N.3     1  UNL1       -0.2807
      3 C          -1.4110   12.1716   10.5136 C.3     1  UNL1        0.1855
      4 C          -3.2356   11.4989    9.0749 C.3     1  UNL1       -0.0109
      5 C          -2.1144   13.5586    8.5214 C.3     1  UNL1       -0.0109
      6 C           0.3572   13.8371   10.0124 C.ar    1  UNL1        0.0560
      7 C           1.0754   13.4731    8.8582 C.ar    1  UNL1       -0.0276
      8 C           1.8727   14.4155    8.2248 C.ar    1  UNL1       -0.0570
      9 C           1.9723   15.7116    8.6927 C.ar    1  UNL1       -0.0611
     10 C           1.2494   16.0813    9.8141 C.ar    1  UNL1       -0.0570
     11 C           0.4481   15.1671   10.4733 C.ar    1  UNL1       -0.0276
     12 C           1.0024   12.0904    8.2803 C.3     1  UNL1       -0.0379
     13 C          -0.3649   15.5678   11.6648 C.3     1  UNL1       -0.0379
     14 H          -3.0063   11.0237    8.1141 H       1  UNL1        0.0391
     15 H          -4.1999   12.0073    8.9777 H       1  UNL1        0.0391
     16 H          -3.3163   10.7308    9.8395 H       1  UNL1        0.0391
     17 H          -3.1274   13.8848    8.2724 H       1  UNL1        0.0391
     18 H          -1.5984   13.2923    7.5938 H       1  UNL1        0.0391
     19 H          -1.5918   14.3890    8.9863 H       1  UNL1        0.0391
     20 H           2.4202   14.1192    7.3407 H       1  UNL1        0.0621
     21 H           2.5968   16.4304    8.1835 H       1  UNL1        0.0618
     22 H           1.3015   17.0981   10.1784 H       1  UNL1        0.0621
     23 H           0.7251   12.1326    7.2271 H       1  UNL1        0.0278
     24 H           0.2801   11.4778    8.8115 H       1  UNL1        0.0278
     25 H           1.9740   11.6023    8.3446 H       1  UNL1        0.0278
     26 H          -0.2582   14.8151   12.4529 H       1  UNL1        0.0278
     27 H          -1.4236   15.6223   11.4028 H       1  UNL1        0.0278
     28 H          -0.0600   16.5439   12.0354 H       1  UNL1        0.0278
@<TRIPOS>BOND
     1    23    12    1
     2    20     8    1
     3    18     5    1
     4    14     4    1
     5    21     9    1
     6     8     9   ar
     7     8     7   ar
     8    17     5    1
     9    12    25    1
    10    12    24    1
    11    12     7    1
    12     5    19    1
    13     5     2    1
    14     9    10   ar
    15     7     6   ar
    16    15     4    1
    17     4     2    1
    18     4    16    1
    19     2     3    1
    20    10    22    1
    21    10    11   ar
    22     6    11   ar
    23     6     1    1
    24    11    13    1
    25     3     1    1
    26    27    13    1
    27    13    28    1
    28    13    26    1
