@<TRIPOS>MOLECULE
5,6
 59 60 0 0 0
SMALL
GASTEIGER

@<TRIPOS>ATOM
      1 SI         -0.1608    7.6922   12.8131 Si      1  UNL1        0.0000
      2 SI         -2.4893    7.2759   12.4213 Si      1  UNL1        0.0000
      3 SI          1.2729    6.0625   11.8003 Si      1  UNL1        0.0000
      4 SI          0.2367    7.5935   15.1678 Si      1  UNL1        0.0000
      5 N           0.6470   10.1911   11.6789 N.pl3   1  UNL1        0.0000
      6 C          -0.1120    9.5779   12.5250 C.3     1  UNL1        0.0000
      7 C           1.4166    9.6938   10.6275 C.ar    1  UNL1        0.0000
      8 C           0.8166    8.9800    9.5714 C.ar    1  UNL1        0.0000
      9 C           1.5934    8.5773    8.4952 C.ar    1  UNL1        0.0000
     10 C           2.9450    8.8582    8.4341 C.ar    1  UNL1        0.0000
     11 C           3.5163    9.6258    9.4337 C.ar    1  UNL1        0.0000
     12 C           2.7667   10.0704   10.5107 C.ar    1  UNL1        0.0000
     13 C          -0.6610    8.7303    9.5316 C.3     1  UNL1        0.0000
     14 C           3.3986   10.9647   11.5323 C.3     1  UNL1        0.0000
     15 C          -2.8327    5.8746   11.1532 C.3     1  UNL1        0.0000
     16 C          -3.4223    6.6604   13.9799 C.3     1  UNL1        0.0000
     17 C          -3.4482    8.8177   11.7800 C.3     1  UNL1        0.0000
     18 C           1.2319    4.4993   12.9114 C.3     1  UNL1        0.0000
     19 C           0.8777    5.4120   10.0393 C.3     1  UNL1        0.0000
     20 C           3.1003    6.6337   11.7514 C.3     1  UNL1        0.0000
     21 C           2.1087    7.6250   15.5835 C.3     1  UNL1        0.0000
     22 C          -0.4016    5.9934   16.0078 C.3     1  UNL1        0.0000
     23 C          -0.6650    9.0224   16.0595 C.3     1  UNL1        0.0000
     24 H           1.1217    8.0425    7.6825 H       1  UNL1        0.0000
     25 H           3.5389    8.5157    7.6005 H       1  UNL1        0.0000
     26 H           4.5599    9.9004    9.3726 H       1  UNL1        0.0000
     27 H          -1.1848    9.4444   10.1678 H       1  UNL1        0.0000
     28 H          -0.8962    7.7230    9.8687 H       1  UNL1        0.0000
     29 H          -1.0217    8.8353    8.5092 H       1  UNL1        0.0000
     30 H           2.6306   11.5744   12.0178 H       1  UNL1        0.0000
     31 H           4.1301   11.6161   11.0569 H       1  UNL1        0.0000
     32 H           3.9159   10.3755   12.2890 H       1  UNL1        0.0000
     33 H          -2.5263    6.1320   10.1443 H       1  UNL1        0.0000
     34 H          -3.8907    5.6296   11.1138 H       1  UNL1        0.0000
     35 H          -2.3042    4.9687   11.4340 H       1  UNL1        0.0000
     36 H          -3.2378    7.2818   14.8488 H       1  UNL1        0.0000
     37 H          -3.1088    5.6514   14.2273 H       1  UNL1        0.0000
     38 H          -4.4970    6.6311   13.8205 H       1  UNL1        0.0000
     39 H          -2.9033    9.7413   12.0109 H       1  UNL1        0.0000
     40 H          -4.4393    8.8993   12.2169 H       1  UNL1        0.0000
     41 H          -3.5807    8.7582   10.7036 H       1  UNL1        0.0000
     42 H           1.6654    4.6990   13.8855 H       1  UNL1        0.0000
     43 H           1.7898    3.6783   12.4701 H       1  UNL1        0.0000
     44 H           0.2151    4.1529   13.0685 H       1  UNL1        0.0000
     45 H          -0.1520    5.0794    9.9557 H       1  UNL1        0.0000
     46 H           1.5111    4.5646    9.7876 H       1  UNL1        0.0000
     47 H           1.0459    6.1742    9.2870 H       1  UNL1        0.0000
     48 H           3.4263    6.9821   12.7266 H       1  UNL1        0.0000
     49 H           3.2382    7.4484   11.0483 H       1  UNL1        0.0000
     50 H           3.7687    5.8295   11.4548 H       1  UNL1        0.0000
     51 H           2.4903    6.6214   15.7488 H       1  UNL1        0.0000
     52 H           2.3129    8.2069   16.4777 H       1  UNL1        0.0000
     53 H           2.6868    8.0606   14.7760 H       1  UNL1        0.0000
     54 H          -1.4830    5.9278   15.9921 H       1  UNL1        0.0000
     55 H          -0.0904    5.9543   17.0483 H       1  UNL1        0.0000
     56 H          -0.0158    5.1037   15.5231 H       1  UNL1        0.0000
     57 H          -1.6624    8.7216   16.3646 H       1  UNL1        0.0000
     58 H          -0.7572    9.8875   15.4013 H       1  UNL1        0.0000
     59 H          -0.1363    9.3399   16.9533 H       1  UNL1        0.0000
@<TRIPOS>BOND
     1    25    10    1
     2    24     9    1
     3    10     9   ar
     4    10    11   ar
     5     9     8   ar
     6    29    13    1
     7    47    19    1
     8    26    11    1
     9    11    12   ar
    10    13     8    1
    11    13    28    1
    12    13    27    1
    13     8     7   ar
    14    46    19    1
    15    45    19    1
    16    19     3    1
    17    33    15    1
    18    12     7   ar
    19    12    14    1
    20     7     5    1
    21    41    17    1
    22    49    20    1
    23    31    14    1
    24    34    15    1
    25    15    35    1
    26    15     2    1
    27    50    20    1
    28    14    30    1
    29    14    32    1
    30     5     6    1
    31    20     3    1
    32    20    48    1
    33    17    39    1
    34    17    40    1
    35    17     2    1
    36     3     1    1
    37     3    18    1
    38     2     1    1
    39     2    16    1
    40    43    18    1
    41     6     1    1
    42     1     4    1
    43    18    44    1
    44    18    42    1
    45    38    16    1
    46    16    37    1
    47    16    36    1
    48    53    21    1
    49     4    21    1
    50     4    22    1
    51     4    23    1
    52    58    23    1
    53    56    22    1
    54    21    51    1
    55    21    52    1
    56    54    22    1
    57    22    55    1
    58    23    57    1
    59    23    59    1
    60     1     5    0
