@<TRIPOS>MOLECULE
1,3
 28 28 0 0 0
SMALL
GASTEIGER

@<TRIPOS>ATOM
      1 N          -2.1616   13.1298   13.4177 N.pl3   1  UNL1       -0.2204
      2 N          -3.5687   11.6432   14.5767 N.3     1  UNL1       -0.2807
      3 C          -2.5021   11.9077   13.7850 C.3     1  UNL1        0.1855
      4 C          -3.8284   10.2712   14.9445 C.3     1  UNL1       -0.0109
      5 C          -4.4216   12.5781   15.2860 C.3     1  UNL1       -0.0109
      6 C          -2.8988   14.3177   13.4212 C.ar    1  UNL1        0.0560
      7 C          -4.0500   14.4310   12.6102 C.ar    1  UNL1       -0.0276
      8 C          -4.6934   15.6507   12.4972 C.ar    1  UNL1       -0.0570
      9 C          -4.2321   16.7709   13.1664 C.ar    1  UNL1       -0.0611
     10 C          -3.1021   16.6663   13.9551 C.ar    1  UNL1       -0.0570
     11 C          -2.4260   15.4637   14.0889 C.ar    1  UNL1       -0.0276
     12 C          -4.5776   13.2365   11.8708 C.3     1  UNL1       -0.0379
     13 C          -1.2124   15.4059   14.9724 C.3     1  UNL1       -0.0379
     14 H          -3.7471   10.1437   16.0292 H       1  UNL1        0.0391
     15 H          -3.1057    9.6257   14.4492 H       1  UNL1        0.0391
     16 H          -4.8415    9.9829   14.6470 H       1  UNL1        0.0391
     17 H          -4.3603   12.3838   16.3615 H       1  UNL1        0.0391
     18 H          -5.4652   12.4625   14.9782 H       1  UNL1        0.0391
     19 H          -4.1133   13.6022   15.1010 H       1  UNL1        0.0391
     20 H          -5.5734   15.7239   11.8728 H       1  UNL1        0.0621
     21 H          -4.7470   17.7149   13.0701 H       1  UNL1        0.0618
     22 H          -2.7314   17.5347   14.4820 H       1  UNL1        0.0621
     23 H          -3.7559   12.5807   11.5774 H       1  UNL1        0.0278
     24 H          -5.1254   13.5537   10.9857 H       1  UNL1        0.0278
     25 H          -5.2591   12.6617   12.4985 H       1  UNL1        0.0278
     26 H          -0.6432   14.4955   14.7896 H       1  UNL1        0.0278
     27 H          -1.5120   15.4245   16.0211 H       1  UNL1        0.0278
     28 H          -0.5747   16.2709   14.7973 H       1  UNL1        0.0278
@<TRIPOS>BOND
     1    24    12    1
     2    23    12    1
     3    12    25    1
     4    12     7    1
     5    20     8    1
     6     8     7   ar
     7     8     9   ar
     8     7     6   ar
     9    21     9    1
    10     9    10   ar
    11     1     6    1
    12     1     3    1
    13     6    11   ar
    14     3     2    1
    15    10    11   ar
    16    10    22    1
    17    11    13    1
    18    15     4    1
    19     2     4    1
    20     2     5    1
    21    16     4    1
    22    26    13    1
    23    28    13    1
    24     4    14    1
    25    13    27    1
    26    18     5    1
    27    19     5    1
    28     5    17    1
