@<TRIPOS>MOLECULE
2,3
 44 46 0 0 0
SMALL
GASTEIGER

@<TRIPOS>ATOM
      1 SI          2.2356   -0.0819    6.1495 Si      1  UNL1        0.0000
      2 N           3.3811    1.0427    5.5273 N.3     1  UNL1        0.0000
      3 C           0.7170    0.5520    5.1525 C.3     1  UNL1        0.0000
      4 C           0.2594   -0.1100    3.9411 C.ar    1  UNL1        0.0000
      5 C           0.9705   -0.7886    2.9407 C.ar    1  UNL1        0.0000
      6 C           0.2849   -1.3232    1.8696 C.ar    1  UNL1        0.0000
      7 C          -1.1016   -1.1960    1.7597 C.ar    1  UNL1        0.0000
      8 C          -1.8250   -0.5250    2.7249 C.ar    1  UNL1        0.0000
      9 C          -1.1561    0.0203    3.8148 C.ar    1  UNL1        0.0000
     10 C          -1.6202    0.7742    4.9444 C.ar    1  UNL1        0.0000
     11 C          -2.8907    1.1990    5.3129 C.ar    1  UNL1        0.0000
     12 C          -3.0429    1.9312    6.4734 C.ar    1  UNL1        0.0000
     13 C          -1.9372    2.2367    7.2693 C.ar    1  UNL1        0.0000
     14 C          -0.6683    1.8259    6.9207 C.ar    1  UNL1        0.0000
     15 C          -0.4813    1.0912    5.7463 C.ar    1  UNL1        0.0000
     16 C           2.4448   -1.9711    5.8450 C.3     1  UNL1        0.0000
     17 C           1.9727    0.0071    8.0534 C.3     1  UNL1        0.0000
     18 C           4.8240    0.8987    5.5447 C.3     1  UNL1        0.0000
     19 C           5.2810    0.0321    4.3545 C.3     1  UNL1        0.0000
     20 C           5.4696    2.2926    5.4135 C.3     1  UNL1        0.0000
     21 C           5.3188    0.2588    6.8483 C.3     1  UNL1        0.0000
     22 H           2.0512   -0.9003    3.0107 H       1  UNL1        0.0000
     23 H           0.8259   -1.8533    1.0977 H       1  UNL1        0.0000
     24 H          -1.6075   -1.6277    0.9082 H       1  UNL1        0.0000
     25 H          -2.8982   -0.4252    2.6358 H       1  UNL1        0.0000
     26 H          -3.7483    0.9563    4.7005 H       1  UNL1        0.0000
     27 H          -4.0242    2.2680    6.7758 H       1  UNL1        0.0000
     28 H          -2.0861    2.8044    8.1781 H       1  UNL1        0.0000
     29 H           0.1773    2.0667    7.5492 H       1  UNL1        0.0000
     30 H           3.1984   -2.3913    6.5046 H       1  UNL1        0.0000
     31 H           1.5150   -2.4977    6.0363 H       1  UNL1        0.0000
     32 H           2.7392   -2.1984    4.8263 H       1  UNL1        0.0000
     33 H           0.9648   -0.2895    8.3223 H       1  UNL1        0.0000
     34 H           2.6581   -0.6615    8.5638 H       1  UNL1        0.0000
     35 H           2.1412    1.0042    8.4486 H       1  UNL1        0.0000
     36 H           6.3664   -0.0312    4.3097 H       1  UNL1        0.0000
     37 H           4.9102    0.4630    3.4188 H       1  UNL1        0.0000
     38 H           4.8750   -0.9703    4.4595 H       1  UNL1        0.0000
     39 H           6.5527    2.2092    5.3436 H       1  UNL1        0.0000
     40 H           5.0961    2.7974    4.5146 H       1  UNL1        0.0000
     41 H           5.2243    2.8945    6.2859 H       1  UNL1        0.0000
     42 H           4.9556   -0.7604    6.9222 H       1  UNL1        0.0000
     43 H           4.9423    0.8180    7.7003 H       1  UNL1        0.0000
     44 H           6.4060    0.2495    6.8810 H       1  UNL1        0.0000
@<TRIPOS>BOND
     1    24     7    1
     2    23     6    1
     3     7     6   ar
     4     7     8   ar
     5     6     5   ar
     6    25     8    1
     7     8     9   ar
     8     5    22    1
     9     5     4   ar
    10    37    19    1
    11     9     4   ar
    12     9    10    1
    13     4     3    1
    14    36    19    1
    15    19    38    1
    16    19    18    1
    17    40    20    1
    18    26    11    1
    19    32    16    1
    20    10    11   ar
    21    10    15   ar
    22     3    15    1
    23     3     1    1
    24    11    12   ar
    25    39    20    1
    26    20    18    1
    27    20    41    1
    28     2    18    1
    29     2     1    1
    30    18    21    1
    31    15    14   ar
    32    16    31    1
    33    16     1    1
    34    16    30    1
    35     1    17    1
    36    12    27    1
    37    12    13   ar
    38    21    44    1
    39    21    42    1
    40    21    43    1
    41    14    13   ar
    42    14    29    1
    43    13    28    1
    44    17    33    1
    45    17    35    1
    46    17    34    1
