@<TRIPOS>MOLECULE
1,2
 22 22 0 0 0
SMALL
GASTEIGER

@<TRIPOS>ATOM
      1 N           0.1603    3.5995    2.8490 N.pl3   1  UNL1       -0.3358
      2 C           2.7742    2.8737    1.9291 C.3     1  UNL1       -0.0219
      3 C           2.2935    4.2778    1.8540 C.ar    1  UNL1       -0.0261
      4 C           3.1359    5.3031    1.4148 C.ar    1  UNL1       -0.0568
      5 C           2.7182    6.6186    1.3545 C.ar    1  UNL1       -0.0614
      6 C           1.4270    6.9478    1.7259 C.ar    1  UNL1       -0.0600
      7 C           0.5749    5.9565    2.1868 C.ar    1  UNL1       -0.0404
      8 C           0.9905    4.6369    2.2708 C.ar    1  UNL1        0.0324
      9 C          -0.5876    2.8985    1.7990 C.3     1  UNL1        0.0004
     10 C          -0.7922    4.0936    3.8469 C.3     1  UNL1        0.0004
     11 H           2.2127    2.2578    1.2100 H       1  UNL1        0.0317
     12 H           3.8201    2.8479    1.5940 H       1  UNL1        0.0317
     13 H           4.1454    5.0525    1.1176 H       1  UNL1        0.0621
     14 H           3.3957    7.3846    1.0066 H       1  UNL1        0.0618
     15 H           1.0806    7.9683    1.6636 H       1  UNL1        0.0618
     16 H          -0.4239    6.2334    2.4872 H       1  UNL1        0.0636
     17 H          -1.3321    3.5623    1.3392 H       1  UNL1        0.0428
     18 H           0.0862    2.5532    1.0177 H       1  UNL1        0.0428
     19 H          -1.0999    2.0364    2.2268 H       1  UNL1        0.0428
     20 H          -1.6126    4.6666    3.3958 H       1  UNL1        0.0428
     21 H          -0.2765    4.7226    4.5724 H       1  UNL1        0.0428
     22 H          -1.2314    3.2408    4.3656 H       1  UNL1        0.0428
@<TRIPOS>BOND
     1    14     5    1
     2    18     9    1
     3    13     4    1
     4    11     2    1
     5    17     9    1
     6     5     4   ar
     7     5     6   ar
     8     4     3   ar
     9    12     2    1
    10    15     6    1
    11     6     7   ar
    12     9    19    1
    13     9     1    1
    14     3     2    1
    15     3     8   ar
    16     7     8   ar
    17     7    16    1
    18     8     1    1
    19     1    10    1
    20    20    10    1
    21    10    22    1
    22    10    21    1
