@<TRIPOS>MOLECULE
1,24
 28 29 0 0 0
SMALL
GASTEIGER

@<TRIPOS>ATOM
      1 N           1.8845    1.3211    3.3211 N.pl3   1  UNL1       -0.2371
      2 C           1.6776    2.5529    2.7777 C.ar    1  UNL1        0.0489
      3 C           0.9334    3.4864    3.5178 C.ar    1  UNL1       -0.0391
      4 H           0.5743    3.1861    4.4979 H       1  UNL1        0.0637
      5 C           0.6791    4.7425    3.0120 C.ar    1  UNL1       -0.0600
      6 H           0.1070    5.4495    3.5961 H       1  UNL1        0.0618
      7 C           1.1578    5.1053    1.7607 C.ar    1  UNL1       -0.0616
      8 H           0.9577    6.0901    1.3665 H       1  UNL1        0.0618
      9 C           1.8932    4.1926    1.0218 C.ar    1  UNL1       -0.0600
     10 H           2.2659    4.4677    0.0452 H       1  UNL1        0.0618
     11 C           2.1548    2.9298    1.5141 C.ar    1  UNL1       -0.0391
     12 H           2.7131    2.2179    0.9238 H       1  UNL1        0.0637
     13 C           2.4665   -0.5332    1.8221 C.ar    1  UNL1       -0.0202
     14 C           1.1979   -0.4449    1.2374 C.ar    1  UNL1       -0.0564
     15 H           0.5021    0.3133    1.5797 H       1  UNL1        0.0621
     16 C           0.8271   -1.2916    0.2121 C.ar    1  UNL1       -0.0614
     17 H          -0.1548   -1.1973   -0.2289 H       1  UNL1        0.0618
     18 C           1.7078   -2.2521   -0.2571 C.ar    1  UNL1       -0.0617
     19 H           1.4154   -2.9150   -1.0577 H       1  UNL1        0.0618
     20 C           2.9707   -2.3462    0.3034 C.ar    1  UNL1       -0.0614
     21 H           3.6688   -3.0862   -0.0626 H       1  UNL1        0.0618
     22 C           3.3505   -1.4947    1.3221 C.ar    1  UNL1       -0.0564
     23 H           4.3419   -1.5765    1.7415 H       1  UNL1        0.0621
     24 C           2.8395    0.3418    2.9512 C.3     1  UNL1        0.1024
     25 C           4.2942    0.8222    2.9672 C.3     1  UNL1       -0.0354
     26 H           4.3782    1.6894    3.6270 H       1  UNL1        0.0255
     27 H           4.6335    1.1077    1.9686 H       1  UNL1        0.0255
     28 H           4.9608    0.0449    3.3431 H       1  UNL1        0.0255
@<TRIPOS>BOND
     1    19    18    1
     2    18    16   ar
     3    18    20   ar
     4    17    16    1
     5    21    20    1
     6    10     9    1
     7    16    14   ar
     8    20    22   ar
     9    12    11    1
    10     9    11   ar
    11     9     7   ar
    12    14    15    1
    13    14    13   ar
    14    22    23    1
    15    22    13   ar
    16     8     7    1
    17    11     2   ar
    18     7     5   ar
    19    13    24    1
    20    27    25    1
    21     2     1    1
    22     2     3   ar
    23    24    25    1
    24    24     1    1
    25    25    28    1
    26    25    26    1
    27     5     3   ar
    28     5     6    1
    29     3     4    1
