@<TRIPOS>MOLECULE
1,2
 20 20 0 0 0
SMALL
GASTEIGER

@<TRIPOS>ATOM
      1 N          -0.1629    8.0802    8.0557 N.pl3   1  UNL1       -0.2429
      2 C           0.7286    8.1633    8.9811 C.3     1  UNL1        0.0866
      3 H           0.4188    8.7430    9.8873 H       1  UNL1        0.0557
      4 C          -1.4863    8.5786    8.0909 C.ar    1  UNL1        0.0540
      5 C          -2.4162    8.1052    9.0246 C.ar    1  UNL1       -0.0276
      6 C          -3.7171    8.5900    8.9785 C.ar    1  UNL1       -0.0570
      7 H          -4.4374    8.2213    9.6946 H       1  UNL1        0.0621
      8 C          -4.0971    9.5298    8.0411 C.ar    1  UNL1       -0.0611
      9 H          -5.1118    9.8980    8.0226 H       1  UNL1        0.0618
     10 C          -3.1714    9.9940    7.1224 C.ar    1  UNL1       -0.0570
     11 H          -3.4653   10.7286    6.3864 H       1  UNL1        0.0621
     12 C          -1.8685    9.5254    7.1289 C.ar    1  UNL1       -0.0276
     13 C          -2.0474    7.0820   10.0600 C.3     1  UNL1       -0.0379
     14 H          -1.7366    7.5695   10.9853 H       1  UNL1        0.0278
     15 H          -1.2297    6.4518    9.7125 H       1  UNL1        0.0278
     16 H          -2.9063    6.4543   10.2892 H       1  UNL1        0.0278
     17 C          -0.8623   10.0222    6.1363 C.3     1  UNL1       -0.0379
     18 H          -0.0471   10.5394    6.6447 H       1  UNL1        0.0278
     19 H          -1.3273   10.7125    5.4368 H       1  UNL1        0.0278
     20 H          -0.4452    9.1735    5.5845 H       1  UNL1        0.0278
@<TRIPOS>BOND
     1    19    17    1
     2    20    17    1
     3    17    18    1
     4    17    12    1
     5    11    10    1
     6    10    12   ar
     7    10     8   ar
     8    12     4   ar
     9     9     8    1
    10     8     6   ar
    11     1     4    1
    12     1     2    1
    13     4     5   ar
    14     6     5   ar
    15     6     7    1
    16     2     3    1
    17     5    13    1
    18    15    13    1
    19    13    16    1
    20    13    14    1
