@<TRIPOS>MOLECULE
2,4
 50 52 0 0 0
SMALL
GASTEIGER

@<TRIPOS>ATOM
      1 SI          0.4911   12.8990   11.5166 Si      1  UNL1        0.0000
      2 N           4.0894   14.5110    9.7568 N.pl3   1  UNL1        0.0000
      3 C           0.3647   13.8740   13.1408 C.ar    1  UNL1        0.0000
      4 C           2.9539   14.0245   10.1777 C.1     1  UNL1        0.0000
      5 C           1.8905   13.5153   10.5261 C.1     1  UNL1        0.0000
      6 C           0.8238   11.0822   11.9782 C.ar    1  UNL1        0.0000
      7 C          -1.1493   12.9871   10.5819 C.ar    1  UNL1        0.0000
      8 C          -2.0983   11.9784   10.7033 C.ar    1  UNL1        0.0000
      9 H          -1.8841   11.1204   11.3265 H       1  UNL1        0.0000
     10 C           1.5257   14.2126   13.8276 C.ar    1  UNL1        0.0000
     11 H           2.4852   13.9257   13.4146 H       1  UNL1        0.0000
     12 C           0.9444   10.6659   13.2994 C.ar    1  UNL1        0.0000
     13 H           0.8053   11.3855   14.0951 H       1  UNL1        0.0000
     14 C           1.0066   10.1345   10.9763 C.ar    1  UNL1        0.0000
     15 H           0.9122   10.4396    9.9435 H       1  UNL1        0.0000
     16 C           4.2048   14.8496    8.3320 C.3     1  UNL1        0.0000
     17 C          -3.3091   12.0527   10.0384 C.ar    1  UNL1        0.0000
     18 H          -4.0352   11.2588   10.1465 H       1  UNL1        0.0000
     19 C          -0.8538   14.2706   13.6805 C.ar    1  UNL1        0.0000
     20 H          -1.7692   14.0263   13.1583 H       1  UNL1        0.0000
     21 C          -3.5909   13.1440    9.2342 C.ar    1  UNL1        0.0000
     22 H          -4.5363   13.2050    8.7139 H       1  UNL1        0.0000
     23 C           1.3011    8.8177   11.2787 C.ar    1  UNL1        0.0000
     24 H           1.4365    8.0962   10.4848 H       1  UNL1        0.0000
     25 C           1.4779   14.9171   15.0164 C.ar    1  UNL1        0.0000
     26 H           2.3959   15.1758   15.5255 H       1  UNL1        0.0000
     27 C           1.2383    9.3504   13.6122 C.ar    1  UNL1        0.0000
     28 H           1.3247    9.0462   14.6463 H       1  UNL1        0.0000
     29 C          -1.4471   14.0739    9.7682 C.ar    1  UNL1        0.0000
     30 H          -0.7187   14.8640    9.6598 H       1  UNL1        0.0000
     31 C           0.2545   15.2979   15.5434 C.ar    1  UNL1        0.0000
     32 H           0.2103   15.8492   16.4721 H       1  UNL1        0.0000
     33 C           3.0518   15.7678    7.9057 C.3     1  UNL1        0.0000
     34 H           2.0994   15.2623    8.0538 H       1  UNL1        0.0000
     35 H           3.1488   16.0306    6.8550 H       1  UNL1        0.0000
     36 H           3.0656   16.6816    8.4967 H       1  UNL1        0.0000
     37 C           1.4196    8.4221   12.6010 C.ar    1  UNL1        0.0000
     38 H           1.6486    7.3936   12.8424 H       1  UNL1        0.0000
     39 C           4.1771   13.5665    7.4871 C.3     1  UNL1        0.0000
     40 H           5.0341   12.9411    7.7297 H       1  UNL1        0.0000
     41 H           4.2147   13.8106    6.4282 H       1  UNL1        0.0000
     42 H           3.2639   13.0089    7.6857 H       1  UNL1        0.0000
     43 C          -2.6546   14.1554    9.0989 C.ar    1  UNL1        0.0000
     44 H          -2.8686   15.0087    8.4705 H       1  UNL1        0.0000
     45 C          -0.9121   14.9745   14.8708 C.ar    1  UNL1        0.0000
     46 H          -1.8690   15.2737   15.2752 H       1  UNL1        0.0000
     47 C           5.5368   15.5720    8.1256 C.3     1  UNL1        0.0000
     48 H           5.5478   16.5018    8.6938 H       1  UNL1        0.0000
     49 H           5.6769   15.8084    7.0728 H       1  UNL1        0.0000
     50 H           6.3638   14.9361    8.4499 H       1  UNL1        0.0000
@<TRIPOS>BOND
     1    41    39    1
     2    35    33    1
     3    49    47    1
     4    39    42    1
     5    39    40    1
     6    39    16    1
     7    33    34    1
     8    33    16    1
     9    33    36    1
    10    47    16    1
    11    47    50    1
    12    47    48    1
    13    16     2    1
    14    44    43    1
    15    22    21    1
    16    43    21   ar
    17    43    29   ar
    18    21    17   ar
    19    30    29    1
    20     2     4    1
    21    29     7   ar
    22    15    14    1
    23    17    18    1
    24    17     8   ar
    25     4     5    3
    26    24    23    1
    27     5     1    1
    28     7     8   ar
    29     7     1    1
    30     8     9    1
    31    14    23   ar
    32    14     6   ar
    33    23    37   ar
    34     1     6    1
    35     1     3    1
    36     6    12   ar
    37    37    38    1
    38    37    27   ar
    39     3    19   ar
    40     3    10   ar
    41    20    19    1
    42    12    27   ar
    43    12    13    1
    44    11    10    1
    45    27    28    1
    46    19    45   ar
    47    10    25   ar
    48    45    46    1
    49    45    31   ar
    50    25    26    1
    51    25    31   ar
    52    31    32    1
