@<TRIPOS>MOLECULE
1,15
 26 26 0 0 0
SMALL
GASTEIGER

@<TRIPOS>ATOM
      1 N           3.3848   -3.9639   18.8684 N.2     1  UNL1       -0.2752
      2 C           4.4012   -3.4782   19.8291 C.3     1  UNL1        0.0542
      3 C           4.1406   -1.9742   19.9809 C.3     1  UNL1       -0.0403
      4 H           4.4106   -1.4506   19.0661 H       1  UNL1        0.0253
      5 H           4.7319   -1.5698   20.7992 H       1  UNL1        0.0253
      6 H           3.0861   -1.8027   20.1796 H       1  UNL1        0.0253
      7 C           5.8557   -3.6866   19.4006 C.3     1  UNL1       -0.0403
      8 H           6.1223   -4.7399   19.3885 H       1  UNL1        0.0253
      9 H           6.5051   -3.1860   20.1152 H       1  UNL1        0.0253
     10 H           6.0398   -3.2541   18.4207 H       1  UNL1        0.0253
     11 C           4.1606   -4.1969   21.1607 C.3     1  UNL1       -0.0403
     12 H           3.1772   -3.9600   21.5535 H       1  UNL1        0.0253
     13 H           4.9114   -3.8948   21.8867 H       1  UNL1        0.0253
     14 H           4.2222   -5.2736   21.0210 H       1  UNL1        0.0253
     15 C           3.5900   -4.7781   17.9141 C.2     1  UNL1        0.0975
     16 C           4.7509   -5.4892   17.4500 C.ar    1  UNL1        0.0782
     17 C           5.5355   -5.0015   16.3909 C.ar    1  UNL1        0.1734
     18 C           6.4704   -5.7776   15.7363 C.ar    1  UNL1        0.1970
     19 C           6.6561   -7.1050   16.1213 C.ar    1  UNL1        0.1991
     20 C           5.8916   -7.6309   17.1637 C.ar    1  UNL1        0.1970
     21 C           4.9614   -6.8343   17.8029 C.ar    1  UNL1        0.1734
     22 F           5.3375   -3.7158   16.0239 F       1  UNL1       -0.2016
     23 F           7.2017   -5.2611   14.7409 F       1  UNL1       -0.1993
     24 F           7.5640   -7.8686   15.4973 F       1  UNL1       -0.1993
     25 F           6.0730   -8.9004   17.5446 F       1  UNL1       -0.1993
     26 F           4.2123   -7.3297   18.8089 F       1  UNL1       -0.2016
@<TRIPOS>BOND
     1    23    18    1
     2    24    19    1
     3    18    19   ar
     4    18    17   ar
     5    22    17    1
     6    19    20   ar
     7    17    16   ar
     8    20    25    1
     9    20    21   ar
    10    16    21   ar
    11    16    15    1
    12    21    26    1
    13    15     1    2
    14    10     7    1
    15     1     2    1
    16     4     3    1
    17     8     7    1
    18     7     2    1
    19     7     9    1
    20     2     3    1
    21     2    11    1
    22     3     6    1
    23     3     5    1
    24    14    11    1
    25    11    12    1
    26    11    13    1
