@<TRIPOS>MOLECULE
2,26
 26 25 0 0 0
SMALL
GASTEIGER

@<TRIPOS>ATOM
      1 SI          7.7383   10.5111   21.8707 Si      1  UNL1        0.0000
      2 C           8.4438    7.1766   19.9479 C.3     1  UNL1        0.0000
      3 C           9.8508    7.0022   19.3911 C.3     1  UNL1        0.0000
      4 H          10.6098    7.3057   20.1167 H       1  UNL1        0.0000
      5 H           9.9731    7.6028   18.4899 H       1  UNL1        0.0000
      6 H          10.0324    5.9562   19.1459 H       1  UNL1        0.0000
      7 C           8.2514    6.4179   21.2594 C.3     1  UNL1        0.0000
      8 H           8.9469    6.7803   22.0198 H       1  UNL1        0.0000
      9 H           8.4370    5.3528   21.1230 H       1  UNL1        0.0000
     10 H           7.2339    6.5586   21.6292 H       1  UNL1        0.0000
     11 C           8.6738    9.6401   20.4331 C.3     1  UNL1        0.0000
     12 H           8.7668   10.3517   19.6032 H       1  UNL1        0.0000
     13 H           9.6860    9.3591   20.7353 H       1  UNL1        0.0000
     14 C           5.8918   10.5570   21.4141 C.3     1  UNL1        0.0000
     15 H           5.3324   11.2481   22.0368 H       1  UNL1        0.0000
     16 H           5.4462    9.5729   21.5248 H       1  UNL1        0.0000
     17 H           5.7636   10.8600   20.3784 H       1  UNL1        0.0000
     18 C           8.4372   12.2778   22.0572 C.3     1  UNL1        0.0000
     19 H           7.9552   12.7990   22.8775 H       1  UNL1        0.0000
     20 H           8.2774   12.8635   21.1577 H       1  UNL1        0.0000
     21 H           9.5039   12.2699   22.2582 H       1  UNL1        0.0000
     22 C           7.9913    9.5457   23.5043 C.3     1  UNL1        0.0000
     23 H           7.4931   10.0447   24.3299 H       1  UNL1        0.0000
     24 H           9.0431    9.4637   23.7628 H       1  UNL1        0.0000
     25 H           7.5881    8.5400   23.4388 H       1  UNL1        0.0000
     26 N           7.9625    8.4895   19.9500 N.3     1  UNL1        0.0000
@<TRIPOS>BOND
     1     5     3    1
     2     6     3    1
     3     3     2    1
     4     3     4    1
     5    12    11    1
     6     2    26    1
     7     2     7    1
     8    26    11    1
     9    17    14    1
    10    11    13    1
    11    11     1    1
    12     9     7    1
    13    20    18    1
    14     7    10    1
    15     7     8    1
    16    14    16    1
    17    14     1    1
    18    14    15    1
    19     1    18    1
    20     1    22    1
    21    18    21    1
    22    18    19    1
    23    25    22    1
    24    22    24    1
    25    22    23    1
