@<TRIPOS>MOLECULE
1,3
 14 14 0 0 0
SMALL
GASTEIGER

@<TRIPOS>ATOM
      1 N           6.1645   13.3378   11.0952 N.pl3   1  UNL1       -0.1708
      2 N           6.1431   12.5023   12.1464 N.3     1  UNL1       -0.1985
      3 C           6.8708   11.2538   12.0204 C.3     1  UNL1        0.0336
      4 H           6.2261   10.4568   12.4278 H       1  UNL1        0.0457
      5 H           7.7200   11.3092   12.7260 H       1  UNL1        0.0457
      6 C           5.4196   13.0073   13.1471 C.3     1  UNL1        0.0704
      7 H           5.2824   12.4798   14.0709 H       1  UNL1        0.0543
      8 C           4.9411   14.2355   12.7347 C.2     1  UNL1       -0.0437
      9 H           4.3188   14.9102   13.2868 H       1  UNL1        0.0605
     10 C           5.4330   14.4050   11.4394 C.2     1  UNL1        0.0392
     11 C           5.1940   15.5508   10.5254 C.3     1  UNL1       -0.0237
     12 H           6.1327   15.9226   10.1233 H       1  UNL1        0.0291
     13 H           4.6843   16.3497   11.0575 H       1  UNL1        0.0291
     14 H           4.5720   15.2300    9.6890 H       1  UNL1        0.0291
@<TRIPOS>BOND
     1    14    11    1
     2    12    11    1
     3    11    13    1
     4    11    10    1
     5     1    10    1
     6     1     2    1
     7    10     8    2
     8     3     2    1
     9     3     4    1
    10     3     5    1
    11     2     6    1
    12     8     6    1
    13     8     9    1
    14     6     7    1
