@<TRIPOS>MOLECULE
1,2
 23 23 0 0 0
SMALL
GASTEIGER

@<TRIPOS>ATOM
      1 N           0.4963   -2.7323   -4.8791 N.pl3   1  UNL1       -0.2393
      2 C          -0.6277   -2.4823   -4.2874 C.3     1  UNL1        0.1003
      3 C          -1.7894   -1.9880   -5.1338 C.3     1  UNL1       -0.0376
      4 C           0.7792   -2.6298   -6.2584 C.ar    1  UNL1        0.0543
      5 C           1.6127   -1.5875   -6.6943 C.ar    1  UNL1       -0.0276
      6 C           1.9788   -1.5190   -8.0276 C.ar    1  UNL1       -0.0570
      7 C           1.5406   -2.4723   -8.9311 C.ar    1  UNL1       -0.0611
      8 C           0.7378   -3.5091   -8.4947 C.ar    1  UNL1       -0.0570
      9 C           0.3482   -3.6067   -7.1661 C.ar    1  UNL1       -0.0276
     10 C           2.0871   -0.5750   -5.6966 C.3     1  UNL1       -0.0379
     11 C          -0.5163   -4.7493   -6.7219 C.3     1  UNL1       -0.0379
     12 H          -1.4647   -1.6156   -6.1113 H       1  UNL1        0.0252
     13 H          -2.3433   -1.2083   -4.6119 H       1  UNL1        0.0252
     14 H          -2.4751   -2.8226   -5.2923 H       1  UNL1        0.0252
     15 H           2.6153   -0.7115   -8.3607 H       1  UNL1        0.0621
     16 H           1.8304   -2.4097   -9.9693 H       1  UNL1        0.0618
     17 H           0.4008   -4.2612   -9.1941 H       1  UNL1        0.0621
     18 H           2.3363   -1.0759   -4.7528 H       1  UNL1        0.0278
     19 H           1.3028    0.1569   -5.4965 H       1  UNL1        0.0278
     20 H           2.9570   -0.0423   -6.0755 H       1  UNL1        0.0278
     21 H          -0.4306   -4.9079   -5.6478 H       1  UNL1        0.0278
     22 H          -0.2333   -5.6651   -7.2375 H       1  UNL1        0.0278
     23 H          -1.5636   -4.5503   -6.9535 H       1  UNL1        0.0278
@<TRIPOS>BOND
     1    16     7    1
     2    17     8    1
     3     7     8   ar
     4     7     6   ar
     5     8     9   ar
     6    15     6    1
     7     6     5   ar
     8    22    11    1
     9     9    11    1
    10     9     4   ar
    11    23    11    1
    12    11    21    1
    13     5     4   ar
    14     5    10    1
    15     4     1    1
    16    12     3    1
    17    20    10    1
    18    10    19    1
    19    10    18    1
    20    14     3    1
    21     3    13    1
    22     3     2    1
    23     1     2    1
