@<TRIPOS>MOLECULE
1,2
 19 18 0 0 0
SMALL
GASTEIGER

@<TRIPOS>ATOM
      1 N          17.0213    0.6916   11.3316 N.2     1  UNL1       -0.2810
      2 C          17.5913    0.9763   10.2097 C.2     1  UNL1        0.0539
      3 C          18.1353   -0.0628    9.2355 C.3     1  UNL1       -0.0210
      4 C          16.7537   -0.6424   11.9298 C.3     1  UNL1        0.0538
      5 C          15.8908   -0.3697   13.1721 C.3     1  UNL1       -0.0403
      6 C          18.0445   -1.3321   12.3957 C.3     1  UNL1       -0.0403
      7 C          15.9456   -1.5411   10.9823 C.3     1  UNL1       -0.0403
      8 H          18.5146   -0.9708    9.7047 H       1  UNL1        0.0293
      9 H          18.9377    0.3729    8.6400 H       1  UNL1        0.0293
     10 H          17.3295   -0.3377    8.5518 H       1  UNL1        0.0293
     11 H          15.0099    0.1978   12.8835 H       1  UNL1        0.0253
     12 H          16.4515    0.2043   13.9060 H       1  UNL1        0.0253
     13 H          15.5757   -1.3042   13.6327 H       1  UNL1        0.0253
     14 H          18.6476   -0.6340   12.9727 H       1  UNL1        0.0253
     15 H          18.6440   -1.6943   11.5657 H       1  UNL1        0.0253
     16 H          17.7957   -2.1834   13.0268 H       1  UNL1        0.0253
     17 H          15.1278   -0.9656   10.5492 H       1  UNL1        0.0253
     18 H          15.5263   -2.3793   11.5360 H       1  UNL1        0.0253
     19 H          16.5536   -1.9422   10.1779 H       1  UNL1        0.0253
@<TRIPOS>BOND
     1    10     3    1
     2     9     3    1
     3     3     8    1
     4     3     2    1
     5    19     7    1
     6     2     1    2
     7    17     7    1
     8     7    18    1
     9     7     4    1
    10     1     4    1
    11    15     6    1
    12     4     6    1
    13     4     5    1
    14     6    14    1
    15     6    16    1
    16    11     5    1
    17     5    13    1
    18     5    12    1
