@<TRIPOS>MOLECULE
1,2
 19 18 0 0 0
SMALL
GASTEIGER

@<TRIPOS>ATOM
      1 N          15.2044    3.2633   12.4139 N.3     1  UNL1       -0.2244
      2 C          14.5999    2.4586   11.6054 C.3     1  UNL1        0.0766
      3 C          13.1776    1.9551   11.8400 C.3     1  UNL1       -0.0416
      4 C          14.7654    3.8693   13.6944 C.3     1  UNL1        0.0289
      5 C          15.7584    5.0212   13.9374 C.3     1  UNL1       -0.0458
      6 C          14.8956    2.8424   14.8296 C.3     1  UNL1       -0.0458
      7 C          13.3393    4.4442   13.6803 C.3     1  UNL1       -0.0458
      8 H          12.9586    1.7152   12.8824 H       1  UNL1        0.0249
      9 H          12.9947    1.0645   11.2363 H       1  UNL1        0.0249
     10 H          12.4748    2.7224   11.5130 H       1  UNL1        0.0249
     11 H          16.7419    4.7342   13.5548 H       1  UNL1        0.0248
     12 H          15.8265    5.2610   14.9971 H       1  UNL1        0.0248
     13 H          15.4357    5.9126   13.4044 H       1  UNL1        0.0248
     14 H          15.9227    2.4943   14.9030 H       1  UNL1        0.0248
     15 H          14.2542    1.9810   14.6593 H       1  UNL1        0.0248
     16 H          14.6093    3.2988   15.7757 H       1  UNL1        0.0248
     17 H          13.1396    4.9494   12.7373 H       1  UNL1        0.0248
     18 H          13.2396    5.1718   14.4842 H       1  UNL1        0.0248
     19 H          12.5849    3.6775   13.8295 H       1  UNL1        0.0248
@<TRIPOS>BOND
     1     9     3    1
     2    10     3    1
     3     2     3    1
     4     2     1    1
     5     3     8    1
     6     1     4    1
     7    17     7    1
     8    13     5    1
     9    11     5    1
    10     7     4    1
    11     7    19    1
    12     7    18    1
    13     4     5    1
    14     4     6    1
    15     5    12    1
    16    15     6    1
    17     6    14    1
    18     6    16    1
