@<TRIPOS>MOLECULE
1,2
 23 23 0 0 0
SMALL
GASTEIGER

@<TRIPOS>ATOM
      1 N           0.1686   -5.1667   -2.9691 N.pl3   1  UNL1       -0.2393
      2 C           0.9514   -5.2103   -1.9373 C.3     1  UNL1        0.1003
      3 C           0.9637   -6.4743   -1.0941 C.3     1  UNL1       -0.0376
      4 C          -0.6656   -6.1883   -3.4752 C.ar    1  UNL1        0.0543
      5 C          -0.1387   -7.2905   -4.1645 C.ar    1  UNL1       -0.0276
      6 C          -1.0105   -8.1940   -4.7569 C.ar    1  UNL1       -0.0570
      7 C          -2.3793   -8.0271   -4.6795 C.ar    1  UNL1       -0.0611
      8 C          -2.8954   -6.9389   -3.9977 C.ar    1  UNL1       -0.0570
      9 C          -2.0577   -6.0163   -3.3948 C.ar    1  UNL1       -0.0276
     10 C           1.3402   -7.5197   -4.2918 C.3     1  UNL1       -0.0379
     11 C          -2.6187   -4.8534   -2.6320 C.3     1  UNL1       -0.0379
     12 H           0.1210   -7.1350   -1.3264 H       1  UNL1        0.0252
     13 H           0.9474   -6.2201   -0.0347 H       1  UNL1        0.0252
     14 H           1.8908   -7.0202   -1.2779 H       1  UNL1        0.0252
     15 H          -0.5992   -9.0426   -5.2849 H       1  UNL1        0.0621
     16 H          -3.0418   -8.7403   -5.1462 H       1  UNL1        0.0618
     17 H          -3.9654   -6.8032   -3.9292 H       1  UNL1        0.0621
     18 H           1.9116   -6.6918   -3.8786 H       1  UNL1        0.0278
     19 H           1.6110   -7.6389   -5.3403 H       1  UNL1        0.0278
     20 H           1.6237   -8.4334   -3.7685 H       1  UNL1        0.0278
     21 H          -1.9857   -3.9671   -2.7703 H       1  UNL1        0.0278
     22 H          -2.6505   -5.0884   -1.5672 H       1  UNL1        0.0278
     23 H          -3.6336   -4.6372   -2.9600 H       1  UNL1        0.0278
@<TRIPOS>BOND
     1    19    10    1
     2    15     6    1
     3    16     7    1
     4     6     7   ar
     5     6     5   ar
     6     7     8   ar
     7    10     5    1
     8    10    18    1
     9    10    20    1
    10     5     4   ar
    11     8    17    1
    12     8     9   ar
    13     4     9   ar
    14     4     1    1
    15     9    11    1
    16     1     2    1
    17    23    11    1
    18    21    11    1
    19    11    22    1
    20     2     3    1
    21    12     3    1
    22    14     3    1
    23     3    13    1
