@<TRIPOS>MOLECULE
1,2
 29 29 0 0 0
SMALL
GASTEIGER

@<TRIPOS>ATOM
      1 N           2.5834    8.3754    1.8690 N.pl3   1  UNL1       -0.2387
      2 C           1.3547    8.7707    1.9113 C.3     1  UNL1        0.1064
      3 C           3.6047    8.6733    0.9385 C.ar    1  UNL1        0.0544
      4 C           3.8437    7.8148   -0.1409 C.ar    1  UNL1       -0.0276
      5 C           4.8672    8.1145   -1.0259 C.ar    1  UNL1       -0.0570
      6 C           5.6615    9.2316   -0.8407 C.ar    1  UNL1       -0.0611
      7 C           5.4624   10.0388    0.2650 C.ar    1  UNL1       -0.0570
      8 C           4.4477    9.7677    1.1685 C.ar    1  UNL1       -0.0276
      9 C           3.0423    6.5566   -0.2720 C.3     1  UNL1       -0.0379
     10 C           4.2753   10.5725    2.4195 C.3     1  UNL1       -0.0379
     11 C           0.8482    9.6771    0.7930 C.3     1  UNL1       -0.0192
     12 C          -0.2699    8.9659    0.0259 C.3     1  UNL1       -0.0605
     13 C           0.3310   10.9928    1.3796 C.3     1  UNL1       -0.0605
     14 H           5.0465    7.4572   -1.8641 H       1  UNL1        0.0621
     15 H           6.4505    9.4581   -1.5416 H       1  UNL1        0.0618
     16 H           6.1076   10.8880    0.4372 H       1  UNL1        0.0621
     17 H           3.2652    6.0488   -1.2070 H       1  UNL1        0.0278
     18 H           1.9715    6.7598   -0.2240 H       1  UNL1        0.0278
     19 H           3.3008    5.8954    0.5603 H       1  UNL1        0.0278
     20 H           4.4685    9.9231    3.2802 H       1  UNL1        0.0278
     21 H           3.2584   10.9596    2.5048 H       1  UNL1        0.0278
     22 H           4.9719   11.4069    2.4428 H       1  UNL1        0.0278
     23 H           1.6703    9.8996    0.0928 H       1  UNL1        0.0318
     24 H          -0.6193    9.5952   -0.7902 H       1  UNL1        0.0233
     25 H          -1.1111    8.7531    0.6827 H       1  UNL1        0.0233
     26 H           0.0856    8.0273   -0.3956 H       1  UNL1        0.0233
     27 H           1.1107   11.4973    1.9481 H       1  UNL1        0.0233
     28 H          -0.5159   10.8130    2.0387 H       1  UNL1        0.0233
     29 H           0.0102   11.6561    0.5788 H       1  UNL1        0.0233
@<TRIPOS>BOND
     1    14     5    1
     2    15     6    1
     3    17     9    1
     4     5     6   ar
     5     5     4   ar
     6     6     7   ar
     7    24    12    1
     8    26    12    1
     9     9    18    1
    10     9     4    1
    11     9    19    1
    12     4     3   ar
    13    12    25    1
    14    12    11    1
    15    23    11    1
    16     7    16    1
    17     7     8   ar
    18    29    13    1
    19    11    13    1
    20    11     2    1
    21     3     8   ar
    22     3     1    1
    23     8    10    1
    24    13    27    1
    25    13    28    1
    26     1     2    1
    27    10    22    1
    28    10    21    1
    29    10    20    1
