@<TRIPOS>MOLECULE
1,2
 27 27 0 0 0
SMALL
GASTEIGER

@<TRIPOS>ATOM
      1 N          10.7805    8.4919   12.0368 N.pl3   1  UNL1       -0.2419
      2 C          11.5153    7.3477   12.4855 C.3     1  UNL1        0.0705
      3 C          11.1041    6.7193   13.8126 C.3     1  UNL1       -0.0401
      4 H          11.2930    7.4026   14.6426 H       1  UNL1        0.0251
      5 H          11.6945    5.8193   13.9783 H       1  UNL1        0.0251
      6 H          10.0553    6.4299   13.8170 H       1  UNL1        0.0251
      7 C          13.0314    7.5223   12.4654 C.3     1  UNL1       -0.0401
      8 H          13.3719    7.9208   11.5136 H       1  UNL1        0.0251
      9 H          13.5184    6.5639   12.6375 H       1  UNL1        0.0251
     10 H          13.3406    8.2038   13.2606 H       1  UNL1        0.0251
     11 C          10.7683    9.7070   12.7571 C.ar    1  UNL1        0.0542
     12 C          11.6525   10.7379   12.3898 C.ar    1  UNL1       -0.0276
     13 C          11.6701   11.9209   13.1141 C.ar    1  UNL1       -0.0570
     14 H          12.3606   12.7003   12.8252 H       1  UNL1        0.0621
     15 C          10.8210   12.1159   14.1865 C.ar    1  UNL1       -0.0611
     16 H          10.8500   13.0386   14.7463 H       1  UNL1        0.0618
     17 C           9.9174   11.1258   14.5165 C.ar    1  UNL1       -0.0570
     18 H           9.2247   11.2783   15.3322 H       1  UNL1        0.0621
     19 C           9.8711    9.9278   13.8155 C.ar    1  UNL1       -0.0276
     20 C          12.5730   10.6067   11.2116 C.3     1  UNL1       -0.0379
     21 H          12.6149   11.5502   10.6703 H       1  UNL1        0.0278
     22 H          12.2278    9.8211   10.5414 H       1  UNL1        0.0278
     23 H          13.5834   10.3693   11.5428 H       1  UNL1        0.0278
     24 C           8.8219    8.9253   14.2003 C.3     1  UNL1       -0.0379
     25 H           9.0866    8.4284   15.1330 H       1  UNL1        0.0278
     26 H           8.7047    8.1737   13.4243 H       1  UNL1        0.0278
     27 H           7.8700    9.4314   14.3565 H       1  UNL1        0.0278
@<TRIPOS>BOND
     1    22    20    1
     2    21    20    1
     3    20    23    1
     4    20    12    1
     5     8     7    1
     6     1     2    1
     7     1    11    1
     8    12    11   ar
     9    12    13   ar
    10     7     2    1
    11     7     9    1
    12     7    10    1
    13     2     3    1
    14    11    19   ar
    15    14    13    1
    16    13    15   ar
    17    26    24    1
    18     3     6    1
    19     3     5    1
    20     3     4    1
    21    19    24    1
    22    19    17   ar
    23    15    17   ar
    24    15    16    1
    25    24    27    1
    26    24    25    1
    27    17    18    1
