@<TRIPOS>MOLECULE
2,3
 16 15 0 0 0
SMALL
GASTEIGER

@<TRIPOS>ATOM
      1 O           1.4241    4.3517   12.5747 O.2     1  UNL1        0.0000
      2 C           1.8245    3.6027   11.7207 C.2     1  UNL1        0.0000
      3 N           2.6207    3.5300   10.7154 N.am    1  UNL1        0.0000
      4 SI          3.8188    4.6525   10.1703 Si      1  UNL1        0.0000
      5 C           3.1043    6.4123   10.3820 C.3     1  UNL1        0.0000
      6 H           2.3485    6.6352    9.6341 H       1  UNL1        0.0000
      7 H           3.8791    7.1682   10.3045 H       1  UNL1        0.0000
      8 H           2.6384    6.5095   11.3580 H       1  UNL1        0.0000
      9 C           4.1971    4.3240    8.3268 C.3     1  UNL1        0.0000
     10 H           4.5172    3.3011    8.1609 H       1  UNL1        0.0000
     11 H           4.9922    4.9783    7.9853 H       1  UNL1        0.0000
     12 H           3.3281    4.5110    7.7039 H       1  UNL1        0.0000
     13 C           5.4108    4.4662   11.2162 C.3     1  UNL1        0.0000
     14 H           5.2172    4.7238   12.2534 H       1  UNL1        0.0000
     15 H           6.2006    5.1175   10.8548 H       1  UNL1        0.0000
     16 H           5.7891    3.4478   11.2027 H       1  UNL1        0.0000
@<TRIPOS>BOND
     1    12     9    1
     2    11     9    1
     3    10     9    1
     4     9     4    1
     5     6     5    1
     6     4     5    1
     7     4     3    1
     8     4    13    1
     9     7     5    1
    10     5     8    1
    11     3     2    1
    12    15    13    1
    13    16    13    1
    14    13    14    1
    15     2     1    2
