@<TRIPOS>MOLECULE
2,22
 33 35 0 0 0
SMALL
GASTEIGER

@<TRIPOS>ATOM
      1 S           4.1697    2.1152    1.6215 S.O2    1  UNL1        0.0251
      2 N           3.0652    6.3769    6.4399 N.pl3   1  UNL1       -0.2405
      3 O           4.9687    2.9328    0.7444 O.2     1  UNL1       -0.1643
      4 O           4.5242    0.7246    1.7538 O.2     1  UNL1       -0.1643
      5 C           2.6248    7.2208    7.3692 C.3     1  UNL1        0.0847
      6 H           2.7525    8.2735    7.1585 H       1  UNL1        0.0584
      7 C           2.0242    6.8043    8.5415 C.2     1  UNL1       -0.0600
      8 H           1.6829    7.5296    9.2624 H       1  UNL1        0.0592
      9 C           1.8738    5.4421    8.7639 C.2     1  UNL1       -0.0620
     10 H           1.4126    5.0790    9.6697 H       1  UNL1        0.0616
     11 C           2.3230    4.5602    7.8009 C.2     1  UNL1       -0.0387
     12 H           2.2162    3.4981    7.9450 H       1  UNL1        0.0637
     13 C           2.9164    5.0447    6.6367 C.2     1  UNL1        0.0562
     14 C           3.3761    4.2273    5.5238 C.ar    1  UNL1        0.0054
     15 C           3.2351    2.8400    5.4590 C.ar    1  UNL1       -0.0504
     16 H           2.8511    2.2867    6.3023 H       1  UNL1        0.0625
     17 C           3.5541    2.1720    4.2942 C.ar    1  UNL1       -0.0358
     18 H           3.4248    1.1061    4.1900 H       1  UNL1        0.0637
     19 C           4.0532    2.8971    3.2268 C.ar    1  UNL1        0.0942
     20 C           4.2763    4.2559    3.3048 C.ar    1  UNL1       -0.0281
     21 H           4.7008    4.7427    2.4389 H       1  UNL1        0.0643
     22 C           3.9357    4.9613    4.4542 C.ar    1  UNL1       -0.0064
     23 C           2.4494    2.2112    1.0855 C.ar    1  UNL1        0.0936
     24 C           1.7932    1.0584    0.7025 C.ar    1  UNL1       -0.0365
     25 H           2.3343    0.1252    0.7230 H       1  UNL1        0.0637
     26 C           0.4680    1.1309    0.3036 C.ar    1  UNL1       -0.0599
     27 H          -0.0536    0.2362   -0.0017 H       1  UNL1        0.0618
     28 C          -0.1834    2.3538    0.2977 C.ar    1  UNL1       -0.0616
     29 H          -1.2165    2.4172   -0.0097 H       1  UNL1        0.0618
     30 C           0.4834    3.5044    0.6902 C.ar    1  UNL1       -0.0599
     31 H          -0.0307    4.4535    0.6921 H       1  UNL1        0.0618
     32 C           1.8087    3.4363    1.0878 C.ar    1  UNL1       -0.0365
     33 H           2.3383    4.3230    1.4012 H       1  UNL1        0.0637
@<TRIPOS>BOND
     1    29    28    1
     2    27    26    1
     3    28    26   ar
     4    28    30   ar
     5    26    24   ar
     6    30    31    1
     7    30    32   ar
     8    24    25    1
     9    24    23   ar
    10     3     1    2
    11    23    32   ar
    12    23     1    1
    13    32    33    1
    14     1     4    2
    15     1    19    1
    16    21    20    1
    17    19    20   ar
    18    19    17   ar
    19    20    22   ar
    20    18    17    1
    21    17    15   ar
    22    22    14   ar
    23    15    14   ar
    24    15    16    1
    25    14    13    1
    26     2    13    1
    27     2     5    1
    28    13    11    2
    29     6     5    1
    30     5     7    1
    31    11    12    1
    32    11     9    1
    33     7     9    2
    34     7     8    1
    35     9    10    1
