@<TRIPOS>MOLECULE
2,20
 53 57 0 0 0
SMALL
GASTEIGER

@<TRIPOS>ATOM
      1 SI         -1.5750    6.0212    3.4024 Si      1  UNL1        0.0000
      2 N           4.9477    7.4418    3.0772 N.pl3   1  UNL1        0.0000
      3 C           6.2571    7.6482    2.9740 C.3     1  UNL1        0.0000
      4 H           6.8447    7.4548    3.8607 H       1  UNL1        0.0000
      5 C           6.8615    8.0766    1.8076 C.2     1  UNL1        0.0000
      6 H           7.9281    8.2291    1.7752 H       1  UNL1        0.0000
      7 C           6.0681    8.2988    0.6903 C.2     1  UNL1        0.0000
      8 H           6.5054    8.6346   -0.2376 H       1  UNL1        0.0000
      9 C           4.7088    8.0758    0.7872 C.2     1  UNL1        0.0000
     10 H           4.0684    8.2357   -0.0649 H       1  UNL1        0.0000
     11 C           4.1604    7.6423    1.9930 C.2     1  UNL1        0.0000
     12 C           2.7548    7.3489    2.2241 C.ar    1  UNL1        0.0000
     13 C           1.7572    7.3871    1.2499 C.ar    1  UNL1        0.0000
     14 H           1.9891    7.6848    0.2375 H       1  UNL1        0.0000
     15 C           0.4658    7.0213    1.5706 C.ar    1  UNL1        0.0000
     16 H          -0.2991    7.0386    0.8073 H       1  UNL1        0.0000
     17 C           0.1393    6.6174    2.8627 C.ar    1  UNL1        0.0000
     18 C           1.1400    6.6151    3.8310 C.ar    1  UNL1        0.0000
     19 H           0.8791    6.2993    4.8324 H       1  UNL1        0.0000
     20 C           2.4475    6.9683    3.5461 C.ar    1  UNL1        0.0000
     21 C          -1.2092    4.6920    4.7044 C.ar    1  UNL1        0.0000
     22 C          -0.4036    3.6047    4.3761 C.ar    1  UNL1        0.0000
     23 H          -0.0204    3.5097    3.3697 H       1  UNL1        0.0000
     24 C          -0.0814    2.6458    5.3179 C.ar    1  UNL1        0.0000
     25 H           0.5305    1.8020    5.0345 H       1  UNL1        0.0000
     26 C          -0.5426    2.7703    6.6181 C.ar    1  UNL1        0.0000
     27 H          -0.2931    2.0227    7.3577 H       1  UNL1        0.0000
     28 C          -1.3312    3.8537    6.9659 C.ar    1  UNL1        0.0000
     29 H          -1.6909    3.9578    7.9799 H       1  UNL1        0.0000
     30 C          -1.6647    4.8003    6.0135 C.ar    1  UNL1        0.0000
     31 H          -2.2862    5.6412    6.2883 H       1  UNL1        0.0000
     32 C          -2.5907    5.3125    1.9692 C.ar    1  UNL1        0.0000
     33 C          -3.0553    6.1498    0.9578 C.ar    1  UNL1        0.0000
     34 H          -2.8367    7.2074    1.0067 H       1  UNL1        0.0000
     35 C          -3.8005    5.6537   -0.0960 C.ar    1  UNL1        0.0000
     36 H          -4.1502    6.3192   -0.8723 H       1  UNL1        0.0000
     37 C          -4.1051    4.3036   -0.1531 C.ar    1  UNL1        0.0000
     38 H          -4.6905    3.9137   -0.9732 H       1  UNL1        0.0000
     39 C          -3.6615    3.4586    0.8500 C.ar    1  UNL1        0.0000
     40 H          -3.9060    2.4060    0.8172 H       1  UNL1        0.0000
     41 C          -2.9099    3.9604    1.8980 C.ar    1  UNL1        0.0000
     42 H          -2.5669    3.2945    2.6766 H       1  UNL1        0.0000
     43 C          -2.5340    7.4605    4.1799 C.ar    1  UNL1        0.0000
     44 C          -1.8592    8.5004    4.8140 C.ar    1  UNL1        0.0000
     45 H          -0.7790    8.4879    4.8431 H       1  UNL1        0.0000
     46 C          -2.5505    9.5464    5.3977 C.ar    1  UNL1        0.0000
     47 H          -2.0101   10.3461    5.8839 H       1  UNL1        0.0000
     48 C          -3.9347    9.5717    5.3570 C.ar    1  UNL1        0.0000
     49 H          -4.4765   10.3892    5.8105 H       1  UNL1        0.0000
     50 C          -4.6215    8.5459    4.7295 C.ar    1  UNL1        0.0000
     51 H          -5.7015    8.5617    4.6933 H       1  UNL1        0.0000
     52 C          -3.9251    7.5019    4.1479 C.ar    1  UNL1        0.0000
     53 H          -4.4656    6.7050    3.6566 H       1  UNL1        0.0000
@<TRIPOS>BOND
     1    38    37    1
     2    36    35    1
     3     8     7    1
     4    37    35   ar
     5    37    39   ar
     6    35    33   ar
     7    10     9    1
     8    14    13    1
     9     7     9    1
    10     7     5    2
    11     9    11    2
    12    16    15    1
    13    40    39    1
    14    39    41   ar
    15    33    34    1
    16    33    32   ar
    17    13    15   ar
    18    13    12   ar
    19    15    17   ar
    20     6     5    1
    21     5     3    1
    22    41    32   ar
    23    41    42    1
    24    32     1    1
    25    11    12    1
    26    11     2    1
    27    12    20   ar
    28    17     1    1
    29    17    18   ar
    30     3     2    1
    31     3     4    1
    32    23    22    1
    33     1    43    1
    34     1    21    1
    35    20    18   ar
    36    53    52    1
    37    18    19    1
    38    52    43   ar
    39    52    50   ar
    40    43    44   ar
    41    22    21   ar
    42    22    24   ar
    43    51    50    1
    44    21    30   ar
    45    50    48   ar
    46    44    45    1
    47    44    46   ar
    48    25    24    1
    49    24    26   ar
    50    48    46   ar
    51    48    49    1
    52    46    47    1
    53    30    31    1
    54    30    28   ar
    55    26    28   ar
    56    26    27    1
    57    28    29    1
