@<TRIPOS>MOLECULE
2,4
 46 47 0 0 0
SMALL
GASTEIGER

@<TRIPOS>ATOM
      1 SI          3.2106   10.7332    1.1790 Si      1  UNL1        0.0000
      2 N           2.0229    6.3485    0.6583 N.pl3   1  UNL1        0.0000
      3 H           1.6478    5.3977    0.5714 H       1  UNL1        0.0000
      4 C           2.8209    8.8840    0.9909 C.3     1  UNL1        0.0000
      5 C           2.2947    8.2230    2.0639 C.2     1  UNL1        0.0000
      6 C           2.0670    8.7752    3.4554 C.3     1  UNL1        0.0000
      7 H           2.5705    9.7256    3.5750 H       1  UNL1        0.0000
      8 H           2.4500    8.0910    4.2113 H       1  UNL1        0.0000
      9 H           1.0031    8.9286    3.6405 H       1  UNL1        0.0000
     10 C           1.8613    6.8558    1.8384 C.2     1  UNL1        0.0000
     11 C           1.2511    6.0401    2.9623 C.3     1  UNL1        0.0000
     12 H           0.5499    6.6786    3.5132 H       1  UNL1        0.0000
     13 C           0.4545    4.8612    2.4317 C.ar    1  UNL1        0.0000
     14 C           0.7688    3.5448    2.7360 C.ar    1  UNL1        0.0000
     15 H           1.6260    3.3184    3.3508 H       1  UNL1        0.0000
     16 C          -0.0198    2.5102    2.2611 C.ar    1  UNL1        0.0000
     17 H           0.2382    1.4919    2.5096 H       1  UNL1        0.0000
     18 C          -1.1242    2.7788    1.4733 C.ar    1  UNL1        0.0000
     19 H          -1.7503    1.9741    1.1193 H       1  UNL1        0.0000
     20 C          -1.4286    4.0884    1.1400 C.ar    1  UNL1        0.0000
     21 H          -2.2790    4.3039    0.5108 H       1  UNL1        0.0000
     22 C          -0.6463    5.1219    1.6182 C.ar    1  UNL1        0.0000
     23 H          -0.8894    6.1455    1.3646 H       1  UNL1        0.0000
     24 C           2.3465    5.6127    3.9171 C.ar    1  UNL1        0.0000
     25 C           2.0409    5.3742    5.2523 C.ar    1  UNL1        0.0000
     26 H           1.0273    5.5139    5.6002 H       1  UNL1        0.0000
     27 C           3.0208    4.9520    6.1323 C.ar    1  UNL1        0.0000
     28 H           2.7692    4.7661    7.1658 H       1  UNL1        0.0000
     29 C           4.3205    4.7691    5.6901 C.ar    1  UNL1        0.0000
     30 H           5.0856    4.4410    6.3774 H       1  UNL1        0.0000
     31 C           4.6332    5.0090    4.3633 C.ar    1  UNL1        0.0000
     32 H           5.6448    4.8703    4.0112 H       1  UNL1        0.0000
     33 C           3.6519    5.4250    3.4801 C.ar    1  UNL1        0.0000
     34 H           3.9068    5.6080    2.4438 H       1  UNL1        0.0000
     35 C           3.8570   11.5012   -0.4625 C.3     1  UNL1        0.0000
     36 H           4.0699   10.7533   -1.2213 H       1  UNL1        0.0000
     37 H           4.7693   12.0651   -0.2933 H       1  UNL1        0.0000
     38 H           3.1343   12.1966   -0.8782 H       1  UNL1        0.0000
     39 C           1.6384   11.7495    1.6163 C.3     1  UNL1        0.0000
     40 H           0.8079   11.4914    0.9657 H       1  UNL1        0.0000
     41 H           1.8251   12.8130    1.5036 H       1  UNL1        0.0000
     42 H           1.3121   11.5818    2.6369 H       1  UNL1        0.0000
     43 C           4.5446   11.1035    2.5215 C.3     1  UNL1        0.0000
     44 H           5.0605   10.1998    2.8330 H       1  UNL1        0.0000
     45 H           4.1063   11.5507    3.4084 H       1  UNL1        0.0000
     46 H           5.2945   11.7966    2.1536 H       1  UNL1        0.0000
@<TRIPOS>BOND
     1    36    35    1
     2    38    35    1
     3    35    37    1
     4    35     1    1
     5    21    20    1
     6     3     2    1
     7     2    10    1
     8    40    39    1
     9     4     1    1
    10     4     5    1
    11    19    18    1
    12    20    18   ar
    13    20    22   ar
    14     1    39    1
    15     1    43    1
    16    23    22    1
    17    18    16   ar
    18    41    39    1
    19    39    42    1
    20    22    13   ar
    21    10     5    2
    22    10    11    1
    23     5     6    1
    24    46    43    1
    25    16    17    1
    26    16    14   ar
    27    13    14   ar
    28    13    11    1
    29    34    33    1
    30    43    44    1
    31    43    45    1
    32    14    15    1
    33    11    12    1
    34    11    24    1
    35     6     7    1
    36     6     9    1
    37     6     8    1
    38    33    24   ar
    39    33    31   ar
    40    24    25   ar
    41    32    31    1
    42    31    29   ar
    43    25    26    1
    44    25    27   ar
    45    29    27   ar
    46    29    30    1
    47    27    28    1
