@<TRIPOS>MOLECULE
2
 44 45 0 0 0
SMALL
GASTEIGER

@<TRIPOS>ATOM
      1 SI         -1.8420    8.6443    5.0794 Si      1  UNL1        0.0000
      2 N          -0.8025    8.0144    3.8125 N.3     1  UNL1        0.0000
      3 C          -1.1489   10.4052    4.7615 C.3     1  UNL1        0.0000
      4 C          -1.9012   11.5585    4.3065 C.2     1  UNL1        0.0000
      5 H          -2.8340   11.4880    3.7643 H       1  UNL1        0.0000
      6 C          -1.3029   12.7247    4.6895 C.2     1  UNL1        0.0000
      7 C          -0.1373   12.3899    5.4695 C.ar    1  UNL1        0.0000
      8 C          -0.0533   10.9714    5.5370 C.ar    1  UNL1        0.0000
      9 C           0.9509   10.3660    6.2879 C.ar    1  UNL1        0.0000
     10 H           0.9741    9.2865    6.3954 H       1  UNL1        0.0000
     11 C           1.8749   11.1680    6.9344 C.ar    1  UNL1        0.0000
     12 H           2.6493   10.7173    7.5388 H       1  UNL1        0.0000
     13 C           1.8136   12.5565    6.8360 C.ar    1  UNL1        0.0000
     14 H           2.5559   13.1536    7.3417 H       1  UNL1        0.0000
     15 C           0.8130   13.1759    6.1134 C.ar    1  UNL1        0.0000
     16 H           0.7699   14.2533    6.0564 H       1  UNL1        0.0000
     17 C          -1.7860   14.1148    4.4291 C.3     1  UNL1        0.0000
     18 H          -0.9378   14.7629    4.1948 H       1  UNL1        0.0000
     19 H          -2.4608   14.1122    3.5698 H       1  UNL1        0.0000
     20 C          -2.5217   14.6731    5.6498 C.3     1  UNL1        0.0000
     21 H          -3.3879   14.0568    5.8797 H       1  UNL1        0.0000
     22 H          -2.8577   15.6900    5.4606 H       1  UNL1        0.0000
     23 H          -1.8663   14.6775    6.5173 H       1  UNL1        0.0000
     24 C          -1.5505    7.9626    6.8467 C.3     1  UNL1        0.0000
     25 H          -2.2724    7.1904    7.0925 H       1  UNL1        0.0000
     26 H          -1.6598    8.7553    7.5799 H       1  UNL1        0.0000
     27 H          -0.5599    7.5363    6.9672 H       1  UNL1        0.0000
     28 C          -3.7243    8.5977    4.7171 C.3     1  UNL1        0.0000
     29 H          -3.9347    8.8080    3.6728 H       1  UNL1        0.0000
     30 H          -4.2415    9.3382    5.3182 H       1  UNL1        0.0000
     31 H          -4.1550    7.6311    4.9556 H       1  UNL1        0.0000
     32 C          -0.7142    6.6629    3.3061 C.3     1  UNL1        0.0000
     33 C           0.3699    6.6129    2.2138 C.3     1  UNL1        0.0000
     34 H           0.4551    5.6040    1.8147 H       1  UNL1        0.0000
     35 H           0.0984    7.2835    1.3930 H       1  UNL1        0.0000
     36 H           1.3406    6.8931    2.6310 H       1  UNL1        0.0000
     37 C          -0.3338    5.6940    4.4344 C.3     1  UNL1        0.0000
     38 H          -1.1244    5.6592    5.1779 H       1  UNL1        0.0000
     39 H           0.5836    6.0289    4.9153 H       1  UNL1        0.0000
     40 H          -0.1800    4.6933    4.0391 H       1  UNL1        0.0000
     41 C          -2.0568    6.2478    2.6849 C.3     1  UNL1        0.0000
     42 H          -2.3610    6.9942    1.9517 H       1  UNL1        0.0000
     43 H          -1.9681    5.2809    2.1966 H       1  UNL1        0.0000
     44 H          -2.8192    6.1837    3.4551 H       1  UNL1        0.0000
@<TRIPOS>BOND
     1    35    33    1
     2    34    33    1
     3    42    41    1
     4    43    41    1
     5    33    36    1
     6    33    32    1
     7    41    32    1
     8    41    44    1
     9    32     2    1
    10    32    37    1
    11    19    17    1
    12    29    28    1
    13     5     4    1
    14     2     1    1
    15    40    37    1
    16    18    17    1
    17     4     6    2
    18     4     3    1
    19    17     6    1
    20    17    20    1
    21    37    39    1
    22    37    38    1
    23     6     7    1
    24    28    31    1
    25    28     1    1
    26    28    30    1
    27     3     1    1
    28     3     8    1
    29     1    24    1
    30    22    20    1
    31     7     8   ar
    32     7    15   ar
    33     8     9   ar
    34    20    21    1
    35    20    23    1
    36    16    15    1
    37    15    13   ar
    38     9    10    1
    39     9    11   ar
    40    13    11   ar
    41    13    14    1
    42    24    27    1
    43    24    25    1
    44    24    26    1
    45    11    12    1
