@<TRIPOS>MOLECULE
1,3
 41 43 0 0 0
SMALL
GASTEIGER

@<TRIPOS>ATOM
      1 N           5.7024   18.3388    5.9605 N.pl3   1  UNL1       -0.1485
      2 N           6.6831   19.2180    6.4880 N.pl3   1  UNL1       -0.2017
      3 C           3.5474   17.5312    5.6380 C.3     1  UNL1       -0.0059
      4 H           2.5767   17.9296    5.3079 H       1  UNL1        0.0330
      5 H           3.3521   16.7603    6.4002 H       1  UNL1        0.0330
      6 C           4.3765   18.6234    6.2656 C.2     1  UNL1        0.0494
      7 C           3.9557   19.7429    6.9113 C.2     1  UNL1       -0.0342
      8 H           4.6942   20.5020    7.1487 H       1  UNL1        0.0640
      9 C           2.6078   20.1090    7.2734 C.ar    1  UNL1       -0.0235
     10 C           1.5728   19.1907    7.4863 C.ar    1  UNL1       -0.0545
     11 H           1.7738   18.1337    7.4153 H       1  UNL1        0.0623
     12 C           0.3050   19.6123    7.8344 C.ar    1  UNL1       -0.0612
     13 H          -0.4753   18.8800    7.9960 H       1  UNL1        0.0618
     14 C           0.0246   20.9598    7.9897 C.ar    1  UNL1       -0.0617
     15 H          -0.9701   21.2854    8.2589 H       1  UNL1        0.0618
     16 C           1.0424   21.8840    7.8114 C.ar    1  UNL1       -0.0612
     17 H           0.8419   22.9386    7.9455 H       1  UNL1        0.0618
     18 C           2.3096   21.4657    7.4656 C.ar    1  UNL1       -0.0545
     19 H           3.0962   22.1962    7.3301 H       1  UNL1        0.0623
     20 C           7.0488   20.3424    5.7801 C.ar    1  UNL1        0.0550
     21 C           6.3033   20.7411    4.6608 C.ar    1  UNL1       -0.0387
     22 H           5.4244   20.1714    4.3844 H       1  UNL1        0.0637
     23 C           6.6791   21.8504    3.9294 C.ar    1  UNL1       -0.0599
     24 H           6.0760   22.1579    3.0869 H       1  UNL1        0.0618
     25 C           7.8167   22.5676    4.2604 C.ar    1  UNL1       -0.0616
     26 H           8.1027   23.4382    3.6900 H       1  UNL1        0.0618
     27 C           8.5893   22.1473    5.3325 C.ar    1  UNL1       -0.0599
     28 H           9.4934   22.6819    5.5869 H       1  UNL1        0.0618
     29 C           8.2221   21.0493    6.0818 C.ar    1  UNL1       -0.0387
     30 H           8.8482   20.7240    6.8988 H       1  UNL1        0.0637
     31 C           7.0498   18.9943    7.8189 C.ar    1  UNL1        0.0550
     32 C           7.2289   20.0340    8.7328 C.ar    1  UNL1       -0.0387
     33 H           7.0752   21.0567    8.4228 H       1  UNL1        0.0637
     34 C           7.5732   19.7567   10.0413 C.ar    1  UNL1       -0.0599
     35 H           7.7058   20.5712   10.7387 H       1  UNL1        0.0618
     36 C           7.7322   18.4484   10.4681 C.ar    1  UNL1       -0.0616
     37 H           8.0017   18.2395   11.4924 H       1  UNL1        0.0618
     38 C           7.5269   17.4117    9.5725 C.ar    1  UNL1       -0.0599
     39 H           7.6361   16.3875    9.8986 H       1  UNL1        0.0618
     40 C           7.1880   17.6783    8.2614 C.ar    1  UNL1       -0.0387
     41 H           7.0159   16.8776    7.5561 H       1  UNL1        0.0637
@<TRIPOS>BOND
     1    24    23    1
     2    26    25    1
     3    23    25   ar
     4    23    21   ar
     5    25    27   ar
     6    22    21    1
     7    21    20   ar
     8     4     3    1
     9    27    28    1
    10    27    29   ar
    11     3     6    1
    12     3     5    1
    13    20    29   ar
    14    20     2    1
    15     1     6    1
    16     1     2    1
    17    29    30    1
    18     6     7    2
    19     2    31    1
    20     7     8    1
    21     7     9    1
    22     9    18   ar
    23     9    10   ar
    24    19    18    1
    25    11    10    1
    26    18    16   ar
    27    10    12   ar
    28    41    40    1
    29    16    17    1
    30    16    14   ar
    31    31    40   ar
    32    31    32   ar
    33    12    14   ar
    34    12    13    1
    35    14    15    1
    36    40    38   ar
    37    33    32    1
    38    32    34   ar
    39    38    39    1
    40    38    36   ar
    41    34    36   ar
    42    34    35    1
    43    36    37    1
