@<TRIPOS>MOLECULE
1,2
 22 22 0 0 0
SMALL
GASTEIGER

@<TRIPOS>ATOM
      1 N           3.3868    2.8593    5.5590 N.3     1  UNL1       -0.3042
      2 C           0.7569    3.1156    5.7448 C.ar    1  UNL1       -0.0132
      3 C          -0.5002    3.6936    5.8946 C.ar    1  UNL1       -0.0537
      4 C          -1.0770    3.8616    7.1442 C.ar    1  UNL1       -0.0612
      5 C          -0.4049    3.4597    8.2877 C.ar    1  UNL1       -0.0614
      6 C           0.8562    2.8981    8.1724 C.ar    1  UNL1       -0.0568
      7 C           1.4178    2.7279    6.9174 C.ar    1  UNL1       -0.0257
      8 C           2.7886    2.1536    6.7033 C.3     1  UNL1        0.0240
      9 C           4.5986    2.1744    5.1319 C.3     1  UNL1       -0.0127
     10 C           3.7384    4.2063    6.0002 C.3     1  UNL1       -0.0127
     11 H          -1.0369    4.0243    5.0136 H       1  UNL1        0.0624
     12 H          -2.0574    4.3100    7.2306 H       1  UNL1        0.0618
     13 H          -0.8551    3.5891    9.2610 H       1  UNL1        0.0618
     14 H           1.3991    2.5927    9.0585 H       1  UNL1        0.0621
     15 H           3.4240    2.2510    7.5997 H       1  UNL1        0.0476
     16 H           2.7114    1.0953    6.4422 H       1  UNL1        0.0476
     17 H           5.0754    2.7295    4.3222 H       1  UNL1        0.0391
     18 H           4.3464    1.1765    4.7745 H       1  UNL1        0.0391
     19 H           5.3184    2.0888    5.9603 H       1  UNL1        0.0391
     20 H           4.1170    4.7953    5.1681 H       1  UNL1        0.0391
     21 H           2.8548    4.6988    6.4040 H       1  UNL1        0.0391
     22 H           4.5081    4.1675    6.7853 H       1  UNL1        0.0391
@<TRIPOS>BOND
     1    17     9    1
     2    18     9    1
     3    11     3    1
     4     9     1    1
     5     9    19    1
     6    20    10    1
     7     1    10    1
     8     1     8    1
     9     2     3   ar
    10     2     7   ar
    11     3     4   ar
    12    10    21    1
    13    10    22    1
    14    16     8    1
    15     8     7    1
    16     8    15    1
    17     7     6   ar
    18     4    12    1
    19     4     5   ar
    20     6     5   ar
    21     6    14    1
    22     5    13    1
