@<TRIPOS>MOLECULE
2,3
 14 14 0 0 0
SMALL
GASTEIGER

@<TRIPOS>ATOM
      1 O          -0.0674   11.2788    5.9218 O.2     1  UNL1       -0.2629
      2 N           0.3252   12.0683    8.1110 N.am    1  UNL1       -0.1728
      3 C          -0.0855   11.3422    7.1255 C.2     1  UNL1        0.3246
      4 C           1.0716   13.2492    8.0672 C.ar    1  UNL1        0.0571
      5 C           1.2509   14.0098    9.2229 C.ar    1  UNL1       -0.0386
      6 C           1.9844   15.1799    9.1709 C.ar    1  UNL1       -0.0599
      7 C           2.5427   15.6092    7.9775 C.ar    1  UNL1       -0.0616
      8 C           2.3582   14.8605    6.8270 C.ar    1  UNL1       -0.0599
      9 C           1.6274   13.6885    6.8639 C.ar    1  UNL1       -0.0386
     10 H           0.8140   13.6725   10.1484 H       1  UNL1        0.0637
     11 H           2.1199   15.7624   10.0701 H       1  UNL1        0.0618
     12 H           3.1152   16.5242    7.9430 H       1  UNL1        0.0618
     13 H           2.7849   15.1921    5.8917 H       1  UNL1        0.0618
     14 H           1.4740   13.1137    5.9638 H       1  UNL1        0.0637
@<TRIPOS>BOND
     1    13     8    1
     2     1     3    2
     3    14     9    1
     4     8     9   ar
     5     8     7   ar
     6     9     4   ar
     7     3     2    1
     8    12     7    1
     9     7     6   ar
    10     4     2    1
    11     4     5   ar
    12     6     5   ar
    13     6    11    1
    14     5    10    1
