@<TRIPOS>MOLECULE
3,4
 57 56 0 0 0
SMALL
GASTEIGER

@<TRIPOS>ATOM
      1 SI         -2.2465    2.9881    6.4425 Si      1  UNL1        0.0000
      2 N          -1.9614    4.3179    7.5287 N.3     1  UNL1        0.0000
      3 N          -0.2292    3.6872    9.1203 N.3     1  UNL1        0.0000
      4 C          -0.6596    2.8152    5.4016 C.3     1  UNL1        0.0000
      5 C          -2.6512    4.3833   10.1384 C.3     1  UNL1        0.0000
      6 C          -2.1285    5.7166    7.1115 C.3     1  UNL1        0.0000
      7 C           0.5001    3.5680   10.3868 C.3     1  UNL1        0.0000
      8 C          -2.3134    1.3292    7.3944 C.3     1  UNL1        0.0000
      9 C          -3.8388    3.0463    5.3793 C.3     1  UNL1        0.0000
     10 C          -3.9038    3.5131   10.3959 C.3     1  UNL1        0.0000
     11 C          -3.5292    2.0765   10.7665 C.3     1  UNL1        0.0000
     12 C          -4.6753    4.1213   11.5776 C.3     1  UNL1        0.0000
     13 C          -4.8353    3.4983    9.1842 C.3     1  UNL1        0.0000
     14 C          -1.2572    6.6402    7.9766 C.3     1  UNL1        0.0000
     15 C          -1.6627    5.9212    5.6627 C.3     1  UNL1        0.0000
     16 C          -3.5930    6.1744    7.1980 C.3     1  UNL1        0.0000
     17 C           1.9472    3.0856   10.1571 C.3     1  UNL1        0.0000
     18 C           0.6057    4.9391   11.0853 C.3     1  UNL1        0.0000
     19 C          -0.1349    2.5385   11.3395 C.3     1  UNL1        0.0000
     20 B          -1.5662    4.0489    8.9671 B       1  UNL1        0.0000
     21 H          -0.5225    1.8091    5.0027 H       1  UNL1        0.0000
     22 H          -0.5847    3.5112    4.5685 H       1  UNL1        0.0000
     23 H          -2.1452    4.4631   11.1013 H       1  UNL1        0.0000
     24 H          -3.0311    5.3879    9.9332 H       1  UNL1        0.0000
     25 H          -1.5900    1.3108    8.2040 H       1  UNL1        0.0000
     26 H          -3.2912    1.1217    7.8136 H       1  UNL1        0.0000
     27 H          -2.0760    0.5093    6.7221 H       1  UNL1        0.0000
     28 H          -3.8323    3.8592    4.6624 H       1  UNL1        0.0000
     29 H          -3.9212    2.1227    4.8161 H       1  UNL1        0.0000
     30 H          -4.7370    3.1420    5.9799 H       1  UNL1        0.0000
     31 H          -2.8435    1.6574   10.0388 H       1  UNL1        0.0000
     32 H          -3.0586    2.0382   11.7465 H       1  UNL1        0.0000
     33 H          -4.4203    1.4513   10.8043 H       1  UNL1        0.0000
     34 H          -4.0608    4.1422   12.4763 H       1  UNL1        0.0000
     35 H          -4.9856    5.1410   11.3558 H       1  UNL1        0.0000
     36 H          -5.5670    3.5340   11.7906 H       1  UNL1        0.0000
     37 H          -5.2435    4.4893    9.0009 H       1  UNL1        0.0000
     38 H          -4.3000    3.1776    8.2985 H       1  UNL1        0.0000
     39 H          -5.6699    2.8195    9.3561 H       1  UNL1        0.0000
     40 H          -0.2173    6.3218    7.9176 H       1  UNL1        0.0000
     41 H          -1.3330    7.6645    7.6164 H       1  UNL1        0.0000
     42 H          -1.5597    6.6214    9.0182 H       1  UNL1        0.0000
     43 H          -2.2730    5.3523    4.9701 H       1  UNL1        0.0000
     44 H          -1.7481    6.9740    5.3995 H       1  UNL1        0.0000
     45 H          -0.6225    5.6197    5.5517 H       1  UNL1        0.0000
     46 H          -3.9421    6.1682    8.2250 H       1  UNL1        0.0000
     47 H          -3.6902    7.1868    6.8110 H       1  UNL1        0.0000
     48 H          -4.2261    5.5149    6.6125 H       1  UNL1        0.0000
     49 H           1.9628    2.0417    9.8545 H       1  UNL1        0.0000
     50 H           2.4580    3.6851    9.4058 H       1  UNL1        0.0000
     51 H           2.4987    3.1691   11.0925 H       1  UNL1        0.0000
     52 H           1.2064    5.6163   10.4827 H       1  UNL1        0.0000
     53 H          -0.3703    5.3906   11.2255 H       1  UNL1        0.0000
     54 H           1.0793    4.8272   12.0582 H       1  UNL1        0.0000
     55 H          -1.0643    2.9026   11.7571 H       1  UNL1        0.0000
     56 H          -0.3362    1.6116   10.8058 H       1  UNL1        0.0000
     57 H           0.5477    2.3235   12.1596 H       1  UNL1        0.0000
@<TRIPOS>BOND
     1    22     4    1
     2    28     9    1
     3    29     9    1
     4    43    15    1
     5    21     4    1
     6     9    30    1
     7     9     1    1
     8    44    15    1
     9     4     1    1
    10    45    15    1
    11    15     6    1
    12     1     8    1
    13     1     2    1
    14    48    16    1
    15    27     8    1
    16    47    16    1
    17     6    16    1
    18     6     2    1
    19     6    14    1
    20    16    46    1
    21     8    26    1
    22     8    25    1
    23     2    20    1
    24    41    14    1
    25    40    14    1
    26    14    42    1
    27    38    13    1
    28    20     3    1
    29    20     5    1
    30    37    13    1
    31     3     7    1
    32    13    39    1
    33    13    10    1
    34    50    17    1
    35    49    17    1
    36    24     5    1
    37    31    11    1
    38     5    10    1
    39     5    23    1
    40    17     7    1
    41    17    51    1
    42     7    18    1
    43     7    19    1
    44    10    11    1
    45    10    12    1
    46    52    18    1
    47    11    33    1
    48    11    32    1
    49    56    19    1
    50    18    53    1
    51    18    54    1
    52    19    55    1
    53    19    57    1
    54    35    12    1
    55    12    36    1
    56    12    34    1
