@<TRIPOS>MOLECULE
1,61
 81 84 0 0 0
SMALL
GASTEIGER

@<TRIPOS>ATOM
      1 C          -0.7723    5.0942    2.5218 C.3     1  UNL1        0.0000
      2 SI         -0.6973    6.9921    2.6024 Si      1  UNL1        0.0000
      3 C           1.0602    7.6497    2.9360 C.3     1  UNL1        0.0000
      4 H           1.0958    8.7196    2.7569 H       1  UNL1        0.0000
      5 H           1.8076    7.1814    2.3041 H       1  UNL1        0.0000
      6 H           1.3611    7.4815    3.9660 H       1  UNL1        0.0000
      7 C          -1.3308    7.6572    0.9233 C.3     1  UNL1        0.0000
      8 H          -2.2824    7.2187    0.6358 H       1  UNL1        0.0000
      9 H          -0.6290    7.4530    0.1225 H       1  UNL1        0.0000
     10 H          -1.4646    8.7327    0.9727 H       1  UNL1        0.0000
     11 C          -1.8203    7.7570    3.9537 C.3     1  UNL1        0.0000
     12 H          -1.2799    7.8770    4.8866 H       1  UNL1        0.0000
     13 H          -2.7113    7.1756    4.1651 H       1  UNL1        0.0000
     14 H          -2.1423    8.7448    3.6403 H       1  UNL1        0.0000
     15 C          -0.9634    4.5470    1.1528 C.ar    1  UNL1        0.0000
     16 C          -2.0845    3.8193    0.7513 C.ar    1  UNL1        0.0000
     17 H          -2.9092    3.6997    1.4449 H       1  UNL1        0.0000
     18 C          -2.1650    3.2624   -0.5107 C.ar    1  UNL1        0.0000
     19 H          -3.0466    2.6919   -0.7613 H       1  UNL1        0.0000
     20 C          -1.1440    3.4124   -1.4443 C.ar    1  UNL1        0.0000
     21 C          -0.0568    4.1994   -1.0754 C.ar    1  UNL1        0.0000
     22 H           0.7478    4.3805   -1.7683 H       1  UNL1        0.0000
     23 C           0.0402    4.7524    0.1882 C.ar    1  UNL1        0.0000
     24 H           0.8953    5.3769    0.4302 H       1  UNL1        0.0000
     25 C          -1.2335    2.6943   -2.7786 C.3     1  UNL1        0.0000
     26 C          -1.2764    1.1854   -2.4948 C.3     1  UNL1        0.0000
     27 H          -1.2639    0.6265   -3.4280 H       1  UNL1        0.0000
     28 H          -2.1727    0.9120   -1.9444 H       1  UNL1        0.0000
     29 H          -0.4113    0.8964   -1.9022 H       1  UNL1        0.0000
     30 C          -2.5035    3.1296   -3.5223 C.3     1  UNL1        0.0000
     31 H          -2.4848    4.2024   -3.7035 H       1  UNL1        0.0000
     32 H          -3.3996    2.8949   -2.9544 H       1  UNL1        0.0000
     33 H          -2.5669    2.6192   -4.4808 H       1  UNL1        0.0000
     34 C          -0.0278    2.9775   -3.6773 C.3     1  UNL1        0.0000
     35 H           0.0486    4.0373   -3.9105 H       1  UNL1        0.0000
     36 H          -0.1388    2.4350   -4.6139 H       1  UNL1        0.0000
     37 H           0.8925    2.6458   -3.2037 H       1  UNL1        0.0000
     38 P          -1.6247    4.2127    3.7986 P.3     1  UNL1        0.0000
     39 C          -0.9956    5.0343    5.3057 C.ar    1  UNL1        0.0000
     40 C          -1.8089    5.5008    6.3311 C.ar    1  UNL1        0.0000
     41 H          -2.8831    5.4009    6.2521 H       1  UNL1        0.0000
     42 C          -1.2437    6.0954    7.4455 C.ar    1  UNL1        0.0000
     43 H          -1.8788    6.4600    8.2391 H       1  UNL1        0.0000
     44 C           0.1325    6.2217    7.5435 C.ar    1  UNL1        0.0000
     45 H           0.5699    6.6849    8.4148 H       1  UNL1        0.0000
     46 C           0.9489    5.7495    6.5273 C.ar    1  UNL1        0.0000
     47 H           2.0216    5.8392    6.6041 H       1  UNL1        0.0000
     48 C           0.3882    5.1547    5.4106 C.ar    1  UNL1        0.0000
     49 H           1.0332    4.7721    4.6107 H       1  UNL1        0.0000
     50 C          -3.4444    4.1663    3.9742 C.ar    1  UNL1        0.0000
     51 C          -4.0339    3.1871    4.7672 C.ar    1  UNL1        0.0000
     52 H          -3.4146    2.4727    5.2893 H       1  UNL1        0.0000
     53 C          -5.4123    3.1235    4.8702 C.ar    1  UNL1        0.0000
     54 H          -5.8682    2.3626    5.4858 H       1  UNL1        0.0000
     55 C          -6.2040    4.0306    4.1843 C.ar    1  UNL1        0.0000
     56 H          -7.2792    3.9789    4.2678 H       1  UNL1        0.0000
     57 C          -5.6184    4.9984    3.3832 C.ar    1  UNL1        0.0000
     58 H          -6.2355    5.6987    2.8402 H       1  UNL1        0.0000
     59 C          -4.2413    5.0647    3.2724 C.ar    1  UNL1        0.0000
     60 H          -3.7756    5.8068    2.6385 H       1  UNL1        0.0000
     61 N          -1.0184    2.7211    3.5744 N.pl3   1  UNL1        0.0000
     62 C          -1.3170    1.4454    4.1196 C.ar    1  UNL1        0.0000
     63 C          -1.7334    0.4378    3.2350 C.ar    1  UNL1        0.0000
     64 C          -1.9718   -0.8408    3.7118 C.ar    1  UNL1        0.0000
     65 H          -2.2898   -1.6044    3.0161 H       1  UNL1        0.0000
     66 C          -1.8100   -1.1639    5.0495 C.ar    1  UNL1        0.0000
     67 C          -1.3896   -0.1633    5.9101 C.ar    1  UNL1        0.0000
     68 H          -1.2435   -0.3939    6.9560 H       1  UNL1        0.0000
     69 C          -1.1323    1.1276    5.4734 C.ar    1  UNL1        0.0000
     70 C          -1.9437    0.7309    1.7819 C.3     1  UNL1        0.0000
     71 H          -2.8295    1.3522    1.6499 H       1  UNL1        0.0000
     72 H          -2.0865   -0.1928    1.2270 H       1  UNL1        0.0000
     73 H          -1.0858    1.2601    1.3610 H       1  UNL1        0.0000
     74 C          -2.0492   -2.5573    5.5448 C.3     1  UNL1        0.0000
     75 H          -1.1182   -3.1240    5.5176 H       1  UNL1        0.0000
     76 H          -2.7756   -3.0721    4.9203 H       1  UNL1        0.0000
     77 H          -2.4067   -2.5484    6.5721 H       1  UNL1        0.0000
     78 C          -0.6589    2.1441    6.4645 C.3     1  UNL1        0.0000
     79 H          -1.4020    2.9298    6.6104 H       1  UNL1        0.0000
     80 H           0.2688    2.6020    6.1207 H       1  UNL1        0.0000
     81 H          -0.4727    1.6716    7.4258 H       1  UNL1        0.0000
@<TRIPOS>BOND
     1    36    34    1
     2    33    30    1
     3    35    34    1
     4    31    30    1
     5    34    37    1
     6    34    25    1
     7    30    32    1
     8    30    25    1
     9    27    26    1
    10    25    26    1
    11    25    20    1
    12    26    28    1
    13    26    29    1
    14    22    21    1
    15    20    21   ar
    16    20    18   ar
    17    21    23   ar
    18    19    18    1
    19    18    16   ar
    20     9     7    1
    21    23    24    1
    22    23    15   ar
    23     8     7    1
    24    16    15   ar
    25    16    17    1
    26     7    10    1
    27     7     2    1
    28    15     1    1
    29    72    70    1
    30    73    70    1
    31    71    70    1
    32    70    63    1
    33     5     3    1
    34     1     2    1
    35     1    38    1
    36     2     3    1
    37     2    11    1
    38    60    59    1
    39     4     3    1
    40    58    57    1
    41     3     6    1
    42    65    64    1
    43    63    64   ar
    44    63    62   ar
    45    59    57   ar
    46    59    50   ar
    47    57    55   ar
    48    61    38    1
    49    61    62    1
    50    14    11    1
    51    64    66   ar
    52    38    50    1
    53    38    39    1
    54    11    13    1
    55    11    12    1
    56    50    51   ar
    57    62    69   ar
    58    55    56    1
    59    55    53   ar
    60    49    48    1
    61    51    53   ar
    62    51    52    1
    63    53    54    1
    64    76    74    1
    65    66    74    1
    66    66    67   ar
    67    39    48   ar
    68    39    40   ar
    69    48    46   ar
    70    69    67   ar
    71    69    78    1
    72    75    74    1
    73    74    77    1
    74    67    68    1
    75    80    78    1
    76    41    40    1
    77    40    42   ar
    78    78    79    1
    79    78    81    1
    80    46    47    1
    81    46    44   ar
    82    42    44   ar
    83    42    43    1
    84    44    45    1
