@<TRIPOS>MOLECULE
14,61
 81 84 0 0 0
SMALL
GASTEIGER

@<TRIPOS>ATOM
      1 SI          0.5187   12.1425    3.1208 Si      1  UNL1        0.0000
      2 C           1.0028   10.7727    1.8717 C.3     1  UNL1        0.0000
      3 H           1.2430   11.1752    0.8930 H       1  UNL1        0.0000
      4 H           0.1677   10.0917    1.7412 H       1  UNL1        0.0000
      5 H           1.8501   10.1851    2.2119 H       1  UNL1        0.0000
      6 C          -0.2892   11.1974    4.5765 C.3     1  UNL1        0.0000
      7 H          -0.3322   11.7775    5.4919 H       1  UNL1        0.0000
      8 H           0.2477   10.2801    4.7929 H       1  UNL1        0.0000
      9 H          -1.3070   10.9227    4.3159 H       1  UNL1        0.0000
     10 C          -0.8905   13.1575    2.3101 C.3     1  UNL1        0.0000
     11 H          -1.7271   12.5132    2.0599 H       1  UNL1        0.0000
     12 H          -0.5603   13.6367    1.3952 H       1  UNL1        0.0000
     13 H          -1.2629   13.9410    2.9636 H       1  UNL1        0.0000
     14 C           1.9614   13.2931    3.5449 C.3     1  UNL1        0.0000
     15 C           1.8504   14.6131    2.8914 C.ar    1  UNL1        0.0000
     16 C           1.9237   14.7022    1.4896 C.ar    1  UNL1        0.0000
     17 H           2.0204   13.7933    0.9077 H       1  UNL1        0.0000
     18 C           1.7834   15.9112    0.8322 C.ar    1  UNL1        0.0000
     19 H           1.8318   15.9094   -0.2448 H       1  UNL1        0.0000
     20 C           1.5845   17.1007    1.5262 C.ar    1  UNL1        0.0000
     21 C           1.4526   18.4533    0.8459 C.3     1  UNL1        0.0000
     22 C           1.5891   18.3613   -0.6762 C.3     1  UNL1        0.0000
     23 H           0.8041   17.7413   -1.1031 H       1  UNL1        0.0000
     24 H           2.5579   17.9547   -0.9567 H       1  UNL1        0.0000
     25 H           1.5033   19.3562   -1.1088 H       1  UNL1        0.0000
     26 C           2.5567   19.3841    1.3679 C.3     1  UNL1        0.0000
     27 H           2.4838   20.3589    0.8897 H       1  UNL1        0.0000
     28 H           3.5362   18.9647    1.1475 H       1  UNL1        0.0000
     29 H           2.4808   19.5258    2.4425 H       1  UNL1        0.0000
     30 C           0.0747   19.0483    1.1694 C.3     1  UNL1        0.0000
     31 H          -0.7128   18.3813    0.8242 H       1  UNL1        0.0000
     32 H          -0.0452   20.0098    0.6744 H       1  UNL1        0.0000
     33 H          -0.0505   19.1981    2.2383 H       1  UNL1        0.0000
     34 C           1.4993   17.0142    2.9139 C.ar    1  UNL1        0.0000
     35 H           1.3190   17.9025    3.5017 H       1  UNL1        0.0000
     36 C           1.6215   15.8092    3.5759 C.ar    1  UNL1        0.0000
     37 H           1.4927   15.7770    4.6502 H       1  UNL1        0.0000
     38 P           2.4500   13.3329    5.2366 P.3     1  UNL1        0.0000
     39 C           2.6346   11.5510    5.6336 C.ar    1  UNL1        0.0000
     40 C           3.4019   10.8118    4.7380 C.ar    1  UNL1        0.0000
     41 H           3.8242   11.3088    3.8599 H       1  UNL1        0.0000
     42 C           3.6263    9.4646    4.9559 C.ar    1  UNL1        0.0000
     43 H           4.2168    8.8943    4.2539 H       1  UNL1        0.0000
     44 C           3.0952    8.8474    6.0777 C.ar    1  UNL1        0.0000
     45 H           3.2689    7.7957    6.2503 H       1  UNL1        0.0000
     46 C           2.3440    9.5820    6.9801 C.ar    1  UNL1        0.0000
     47 H           1.9326    9.1034    7.8570 H       1  UNL1        0.0000
     48 C           2.1152   10.9296    6.7614 C.ar    1  UNL1        0.0000
     49 H           1.5216   11.4969    7.4650 H       1  UNL1        0.0000
     50 C           1.3461   13.9537    6.5717 C.ar    1  UNL1        0.0000
     51 C           0.0428   14.3436    6.2843 C.ar    1  UNL1        0.0000
     52 H          -0.3338   14.2309    5.2769 H       1  UNL1        0.0000
     53 C          -0.7635   14.8673    7.2786 C.ar    1  UNL1        0.0000
     54 H          -1.7766   15.1640    7.0488 H       1  UNL1        0.0000
     55 C          -0.2708   15.0145    8.5652 C.ar    1  UNL1        0.0000
     56 H          -0.8992   15.4272    9.3406 H       1  UNL1        0.0000
     57 C           1.0295   14.6348    8.8557 C.ar    1  UNL1        0.0000
     58 H           1.4178   14.7515    9.8569 H       1  UNL1        0.0000
     59 C           1.8368   14.1048    7.8651 C.ar    1  UNL1        0.0000
     60 H           2.8520   13.8143    8.0920 H       1  UNL1        0.0000
     61 N           3.8480   14.1363    5.2632 N.pl3   1  UNL1        0.0000
     62 C           4.5615   14.6229    6.3798 C.ar    1  UNL1        0.0000
     63 C           5.3108   13.7835    7.2223 C.ar    1  UNL1        0.0000
     64 C           5.3627   12.2990    7.0217 C.3     1  UNL1        0.0000
     65 H           4.5163   11.8092    7.5066 H       1  UNL1        0.0000
     66 H           6.2748   11.8951    7.4564 H       1  UNL1        0.0000
     67 H           5.3375   12.0496    5.9627 H       1  UNL1        0.0000
     68 C           6.0248   14.3268    8.2787 C.ar    1  UNL1        0.0000
     69 H           6.5871   13.6621    8.9209 H       1  UNL1        0.0000
     70 C           6.0436   15.6887    8.5344 C.ar    1  UNL1        0.0000
     71 C           6.8308   16.2408    9.6847 C.3     1  UNL1        0.0000
     72 H           6.6007   17.2915    9.8434 H       1  UNL1        0.0000
     73 H           7.8993   16.1490    9.4888 H       1  UNL1        0.0000
     74 H           6.6122   15.6915   10.5992 H       1  UNL1        0.0000
     75 C           5.3352   16.5123    7.6765 C.ar    1  UNL1        0.0000
     76 H           5.3461   17.5817    7.8379 H       1  UNL1        0.0000
     77 C           4.6074   16.0076    6.6107 C.ar    1  UNL1        0.0000
     78 C           3.8686   16.9626    5.7241 C.3     1  UNL1        0.0000
     79 H           2.8156   17.0003    6.0070 H       1  UNL1        0.0000
     80 H           3.9355   16.6470    4.6835 H       1  UNL1        0.0000
     81 H           4.2797   17.9651    5.8207 H       1  UNL1        0.0000
@<TRIPOS>BOND
     1    25    22    1
     2    23    22    1
     3    24    22    1
     4    22    21    1
     5    19    18    1
     6    32    30    1
     7    31    30    1
     8    18    16   ar
     9    18    20   ar
    10    21    30    1
    11    21    26    1
    12    21    20    1
    13    27    26    1
    14     3     2    1
    15    17    16    1
    16    28    26    1
    17    30    33    1
    18    26    29    1
    19    12    10    1
    20    16    15   ar
    21    20    34   ar
    22     4     2    1
    23     2     5    1
    24     2     1    1
    25    11    10    1
    26    10    13    1
    27    10     1    1
    28    15    14    1
    29    15    36   ar
    30    34    35    1
    31    34    36   ar
    32     1    14    1
    33     1     6    1
    34    14    38    1
    35    36    37    1
    36    41    40    1
    37    43    42    1
    38     9     6    1
    39     6     8    1
    40     6     7    1
    41    80    78    1
    42    40    42   ar
    43    40    39   ar
    44    42    44   ar
    45    38    61    1
    46    38    39    1
    47    38    50    1
    48    61    62    1
    49    52    51    1
    50    39    48   ar
    51    78    81    1
    52    78    79    1
    53    78    77    1
    54    67    64    1
    55    44    45    1
    56    44    46   ar
    57    51    50   ar
    58    51    53   ar
    59    62    77   ar
    60    62    63   ar
    61    50    59   ar
    62    77    75   ar
    63    48    46   ar
    64    48    49    1
    65    46    47    1
    66    64    63    1
    67    64    66    1
    68    64    65    1
    69    54    53    1
    70    63    68   ar
    71    53    55   ar
    72    75    76    1
    73    75    70   ar
    74    59    60    1
    75    59    57   ar
    76    68    70   ar
    77    68    69    1
    78    70    71    1
    79    55    57   ar
    80    55    56    1
    81    57    58    1
    82    73    71    1
    83    71    72    1
    84    71    74    1
