@<TRIPOS>MOLECULE
1,2
 20 21 0 0 0
SMALL
GASTEIGER

@<TRIPOS>ATOM
      1 N           1.2715   13.8966    4.7020 N.pl3   1  UNL1       -0.2400
      2 C           3.6425   14.7145    5.3724 C.ar    1  UNL1       -0.0119
      3 C           3.2552   13.4614    5.9012 C.ar    1  UNL1       -0.0081
      4 C           5.3429   13.2354    7.0686 C.ar    1  UNL1       -0.0614
      5 H           5.9978   12.6784    7.7228 H       1  UNL1        0.0618
      6 C           4.0994   12.7367    6.7432 C.ar    1  UNL1       -0.0555
      7 H           3.7850   11.7877    7.1526 H       1  UNL1        0.0621
      8 C           4.9108   15.1792    5.7179 C.ar    1  UNL1       -0.0537
      9 H           5.2642   16.1256    5.3306 H       1  UNL1        0.0624
     10 C           5.7489   14.4559    6.5484 C.ar    1  UNL1       -0.0612
     11 H           6.7269   14.8448    6.7966 H       1  UNL1        0.0618
     12 C           1.9425   13.0071    5.4766 C.3     1  UNL1        0.1273
     13 C           1.3912   11.7603    5.7714 C.2     1  UNL1       -0.0520
     14 H           1.9316   11.0724    6.4010 H       1  UNL1        0.0598
     15 C           0.1646   11.4042    5.2481 C.2     1  UNL1       -0.0620
     16 H          -0.2704   10.4410    5.4684 H       1  UNL1        0.0616
     17 C           0.1000   13.5348    4.1835 C.2     1  UNL1        0.0129
     18 H          -0.3782   14.2659    3.5514 H       1  UNL1        0.0798
     19 C          -0.4884   12.3075    4.4201 C.2     1  UNL1       -0.0466
     20 H          -1.4389   12.0674    3.9712 H       1  UNL1        0.0630
@<TRIPOS>BOND
     1    18    17    1
     2    20    19    1
     3    17    19    2
     4    17     1    1
     5    19    15    1
     6     1    12    1
     7    15    16    1
     8    15    13    2
     9     9     8    1
    10     2     8   ar
    11     2     3   ar
    12    12    13    1
    13    12     3    1
    14     8    10   ar
    15    13    14    1
    16     3     6   ar
    17    10    11    1
    18    10     4   ar
    19     6     4   ar
    20     6     7    1
    21     4     5    1
