@<TRIPOS>MOLECULE
1,2
 20 21 0 0 0
SMALL
GASTEIGER

@<TRIPOS>ATOM
      1 N           3.2489   17.3015    3.9829 N.pl3   1  UNL1       -0.2400
      2 C           2.9491   15.1330    2.5892 C.ar    1  UNL1       -0.0119
      3 C           3.6514   16.1797    1.9484 C.ar    1  UNL1       -0.0081
      4 C           4.1261   16.0425    0.6436 C.ar    1  UNL1       -0.0555
      5 H           4.6474   16.8559    0.1600 H       1  UNL1        0.0621
      6 C           3.9215   14.8653   -0.0445 C.ar    1  UNL1       -0.0614
      7 H           4.2848   14.7567   -1.0560 H       1  UNL1        0.0618
      8 C           3.2484   13.8200    0.5715 C.ar    1  UNL1       -0.0612
      9 H           3.0938   12.8935    0.0358 H       1  UNL1        0.0618
     10 C           2.7710   13.9562    1.8634 C.ar    1  UNL1       -0.0537
     11 H           2.2527   13.1183    2.3104 H       1  UNL1        0.0624
     12 C           3.8451   17.3650    2.7658 C.3     1  UNL1        0.1273
     13 C           4.7889   19.5123    3.2945 C.2     1  UNL1       -0.0620
     14 H           5.3772   20.3760    3.0237 H       1  UNL1        0.0616
     15 C           4.6058   18.4757    2.4016 C.2     1  UNL1       -0.0520
     16 H           5.0586   18.5165    1.4243 H       1  UNL1        0.0598
     17 C           4.2128   19.4101    4.5538 C.2     1  UNL1       -0.0466
     18 H           4.3453   20.1838    5.2930 H       1  UNL1        0.0630
     19 C           3.4522   18.2945    4.8461 C.2     1  UNL1        0.0129
     20 H           2.9834   18.1803    5.8106 H       1  UNL1        0.0798
@<TRIPOS>BOND
     1     7     6    1
     2     6     8   ar
     3     6     4   ar
     4     9     8    1
     5     5     4    1
     6     8    10   ar
     7     4     3   ar
     8    16    15    1
     9    10    11    1
    10    10     2   ar
    11     3     2   ar
    12     3    12    1
    13    15    12    1
    14    15    13    2
    15    12     1    1
    16    14    13    1
    17    13    17    1
    18     1    19    1
    19    17    19    2
    20    17    18    1
    21    19    20    1
