@<TRIPOS>MOLECULE
4,5
 45 44 0 0 0
SMALL
GASTEIGER

@<TRIPOS>ATOM
      1 SI          5.1097   10.3151   11.2291 Si      1  UNL1        0.0000
      2 SI          5.2489    9.1365   14.1102 Si      1  UNL1        0.0000
      3 SI          2.4041    9.4181   12.7601 Si      1  UNL1        0.0000
      4 N           1.3420   10.8890   12.7613 N.3     1  UNL1        0.0000
      5 C           4.1683   10.1148   12.8735 C.3     1  UNL1        0.0000
      6 C           5.8908    8.6830   10.6025 C.3     1  UNL1        0.0000
      7 H           6.5161    8.2223   11.3574 H       1  UNL1        0.0000
      8 H           6.5034    8.8473    9.7209 H       1  UNL1        0.0000
      9 H           5.1223    7.9652   10.3361 H       1  UNL1        0.0000
     10 C           4.1960   10.9603    9.6663 C.3     1  UNL1        0.0000
     11 H           3.3409   10.3498    9.4020 H       1  UNL1        0.0000
     12 H           4.8808   10.9240    8.8235 H       1  UNL1        0.0000
     13 H           3.8608   11.9883    9.7507 H       1  UNL1        0.0000
     14 C           6.5246   11.5982   11.4637 C.3     1  UNL1        0.0000
     15 H           6.3585   12.2271   12.3388 H       1  UNL1        0.0000
     16 H           6.6119   12.2515   10.6018 H       1  UNL1        0.0000
     17 H           7.4835   11.1095   11.5907 H       1  UNL1        0.0000
     18 C           5.2385    7.2383   13.8304 C.3     1  UNL1        0.0000
     19 H           4.8172    6.7099   14.6791 H       1  UNL1        0.0000
     20 H           6.2425    6.8553   13.6801 H       1  UNL1        0.0000
     21 H           4.6543    6.9764   12.9561 H       1  UNL1        0.0000
     22 C           4.7860    9.4299   15.9518 C.3     1  UNL1        0.0000
     23 H           4.9173   10.4715   16.2504 H       1  UNL1        0.0000
     24 H           5.4363    8.8369   16.5901 H       1  UNL1        0.0000
     25 H           3.7695    9.1347   16.1831 H       1  UNL1        0.0000
     26 C           7.0943    9.6627   14.0935 C.3     1  UNL1        0.0000
     27 H           7.5870    9.3695   13.1751 H       1  UNL1        0.0000
     28 H           7.6244    9.1828   14.9105 H       1  UNL1        0.0000
     29 H           7.2226   10.7342   14.2094 H       1  UNL1        0.0000
     30 C           1.9765    8.3284   11.2438 C.3     1  UNL1        0.0000
     31 H           0.9163    8.0929   11.2068 H       1  UNL1        0.0000
     32 H           2.5159    7.3891   11.2892 H       1  UNL1        0.0000
     33 H           2.2395    8.8068   10.3087 H       1  UNL1        0.0000
     34 C           1.8329    8.3501   14.2383 C.3     1  UNL1        0.0000
     35 H           1.7903    8.8960   15.1727 H       1  UNL1        0.0000
     36 H           2.5174    7.5229   14.3750 H       1  UNL1        0.0000
     37 H           0.8474    7.9293   14.0627 H       1  UNL1        0.0000
     38 C           1.1377   11.4686   11.4434 C.3     1  UNL1        0.0000
     39 H           0.5050   10.8290   10.8153 H       1  UNL1        0.0000
     40 H           2.0921   11.5991   10.9439 H       1  UNL1        0.0000
     41 H           0.6401   12.4395   11.5286 H       1  UNL1        0.0000
     42 C           0.0379   10.7340   13.3947 C.3     1  UNL1        0.0000
     43 H          -0.4618   11.7043   13.4590 H       1  UNL1        0.0000
     44 H           0.1477   10.3381   14.3980 H       1  UNL1        0.0000
     45 H          -0.6148   10.0635   12.8232 H       1  UNL1        0.0000
@<TRIPOS>BOND
     1    12    10    1
     2    11    10    1
     3    10    13    1
     4    10     1    1
     5     8     6    1
     6    33    30    1
     7     9     6    1
     8    16    14    1
     9     6     1    1
    10     6     7    1
    11    39    38    1
    12    40    38    1
    13    31    30    1
    14     1    14    1
    15     1     5    1
    16    30    32    1
    17    30     3    1
    18    38    41    1
    19    38     4    1
    20    14    17    1
    21    14    15    1
    22     3     4    1
    23     3     5    1
    24     3    34    1
    25     4    42    1
    26    45    42    1
    27     5     2    1
    28    21    18    1
    29    27    26    1
    30    42    43    1
    31    42    44    1
    32    20    18    1
    33    18     2    1
    34    18    19    1
    35    37    34    1
    36    26     2    1
    37    26    29    1
    38    26    28    1
    39     2    22    1
    40    34    36    1
    41    34    35    1
    42    22    25    1
    43    22    23    1
    44    22    24    1
