@<TRIPOS>MOLECULE
4,5
 45 44 0 0 0
SMALL
GASTEIGER

@<TRIPOS>ATOM
      1 SI          5.0164   15.5852   12.5191 Si      1  UNL1        0.0000
      2 SI          2.1384   15.7183   13.7077 Si      1  UNL1        0.0000
      3 SI          4.5480   15.2718   15.7050 Si      1  UNL1        0.0000
      4 N           5.3105   13.6867   16.1496 N.3     1  UNL1        0.0000
      5 C           3.8935   14.9982   13.9422 C.3     1  UNL1        0.0000
      6 C           4.8843   17.4645   12.1772 C.3     1  UNL1        0.0000
      7 H           5.2643   18.0371   13.0165 H       1  UNL1        0.0000
      8 H           3.8581   17.7708   12.0147 H       1  UNL1        0.0000
      9 H           5.4576   17.7512   11.3004 H       1  UNL1        0.0000
     10 C           4.5330   14.6552   10.9055 C.3     1  UNL1        0.0000
     11 H           5.4100   14.4031   10.3183 H       1  UNL1        0.0000
     12 H           3.8926   15.2616   10.2761 H       1  UNL1        0.0000
     13 H           4.0011   13.7274   11.1187 H       1  UNL1        0.0000
     14 C           6.9167   15.3152   12.6172 C.3     1  UNL1        0.0000
     15 H           7.3560   15.7579   13.5030 H       1  UNL1        0.0000
     16 H           7.3811   15.7974   11.7615 H       1  UNL1        0.0000
     17 H           7.2096   14.2715   12.5832 H       1  UNL1        0.0000
     18 C           1.5273   15.6569   11.8896 C.3     1  UNL1        0.0000
     19 H           2.0677   16.3534   11.2611 H       1  UNL1        0.0000
     20 H           0.4771   15.9282   11.8413 H       1  UNL1        0.0000
     21 H           1.6275   14.6693   11.4506 H       1  UNL1        0.0000
     22 C           1.9588   17.5454   14.2656 C.3     1  UNL1        0.0000
     23 H           2.9103   17.9484   14.5921 H       1  UNL1        0.0000
     24 H           1.2580   17.6471   15.0876 H       1  UNL1        0.0000
     25 H           1.5980   18.1721   13.4567 H       1  UNL1        0.0000
     26 C           0.7603   14.7250   14.6053 C.3     1  UNL1        0.0000
     27 H           0.6790   13.7020   14.2336 H       1  UNL1        0.0000
     28 H          -0.2026   15.1987   14.4312 H       1  UNL1        0.0000
     29 H           0.8989   14.6872   15.6793 H       1  UNL1        0.0000
     30 C           5.8153   16.6834   15.9712 C.3     1  UNL1        0.0000
     31 H           6.2253   16.6683   16.9774 H       1  UNL1        0.0000
     32 H           5.3414   17.6480   15.8287 H       1  UNL1        0.0000
     33 H           6.6446   16.6258   15.2775 H       1  UNL1        0.0000
     34 C           3.2262   15.6177   17.0409 C.3     1  UNL1        0.0000
     35 H           2.5402   14.7933   17.1918 H       1  UNL1        0.0000
     36 H           2.6398   16.4820   16.7567 H       1  UNL1        0.0000
     37 H           3.6843   15.8387   18.0003 H       1  UNL1        0.0000
     38 C           6.6918   13.5548   15.7144 C.3     1  UNL1        0.0000
     39 H           7.3598   14.2087   16.2890 H       1  UNL1        0.0000
     40 H           6.7767   13.8185   14.6654 H       1  UNL1        0.0000
     41 H           7.0379   12.5265   15.8565 H       1  UNL1        0.0000
     42 C           5.2429   13.3193   17.5590 C.3     1  UNL1        0.0000
     43 H           5.6086   12.2979   17.6948 H       1  UNL1        0.0000
     44 H           4.2200   13.3670   17.9151 H       1  UNL1        0.0000
     45 H           5.8613   13.9771   18.1810 H       1  UNL1        0.0000
@<TRIPOS>BOND
     1    12    10    1
     2    11    10    1
     3    10    13    1
     4    10     1    1
     5    19    18    1
     6     9     6    1
     7    21    18    1
     8    16    14    1
     9    20    18    1
    10    18     2    1
    11     8     6    1
    12     6     1    1
    13     6     7    1
    14     1    14    1
    15     1     5    1
    16    17    14    1
    17    14    15    1
    18    25    22    1
    19     2     5    1
    20     2    22    1
    21     2    26    1
    22     5     3    1
    23    27    26    1
    24    22    23    1
    25    22    24    1
    26    28    26    1
    27    26    29    1
    28    40    38    1
    29    33    30    1
    30     3    30    1
    31     3     4    1
    32     3    34    1
    33    38    41    1
    34    38     4    1
    35    38    39    1
    36    32    30    1
    37    30    31    1
    38     4    42    1
    39    36    34    1
    40    34    35    1
    41    34    37    1
    42    42    43    1
    43    42    44    1
    44    42    45    1
