@<TRIPOS>MOLECULE
2,40
 62 65 0 0 0
SMALL
GASTEIGER

@<TRIPOS>ATOM
      1 SI         30.6819    3.4488   -1.0248 Si      1  UNL1        0.0000
      2 N          26.8202    4.7130    1.0441 N.pl3   1  UNL1        0.0000
      3 C          25.4155    4.3771   -0.9524 C.3     1  UNL1        0.0000
      4 H          25.6034    4.7125   -1.9798 H       1  UNL1        0.0000
      5 C          24.9529    2.9358   -1.0078 C.ar    1  UNL1        0.0000
      6 C          24.4788    2.3983   -2.1968 C.ar    1  UNL1        0.0000
      7 H          24.4390    3.0133   -3.0845 H       1  UNL1        0.0000
      8 C          24.0574    1.0815   -2.2498 C.ar    1  UNL1        0.0000
      9 H          23.6884    0.6749   -3.1798 H       1  UNL1        0.0000
     10 C          24.1095    0.2886   -1.1161 C.ar    1  UNL1        0.0000
     11 H          23.7814   -0.7390   -1.1577 H       1  UNL1        0.0000
     12 C          24.5837    0.8177    0.0723 C.ar    1  UNL1        0.0000
     13 H          24.6184    0.2083    0.9624 H       1  UNL1        0.0000
     14 C          25.0052    2.1342    0.1272 C.ar    1  UNL1        0.0000
     15 H          25.3695    2.5402    1.0640 H       1  UNL1        0.0000
     16 C          24.4036    5.3203   -0.3359 C.ar    1  UNL1        0.0000
     17 C          24.7454    6.6641   -0.2059 C.ar    1  UNL1        0.0000
     18 H          25.7261    6.9951   -0.5216 H       1  UNL1        0.0000
     19 C          23.8439    7.5726    0.3149 C.ar    1  UNL1        0.0000
     20 H          24.1214    8.6118    0.4082 H       1  UNL1        0.0000
     21 C          22.5859    7.1513    0.7111 C.ar    1  UNL1        0.0000
     22 H          21.8794    7.8588    1.1162 H       1  UNL1        0.0000
     23 C          22.2419    5.8178    0.5892 C.ar    1  UNL1        0.0000
     24 H          21.2610    5.4863    0.8958 H       1  UNL1        0.0000
     25 C          23.1443    4.9046    0.0698 C.ar    1  UNL1        0.0000
     26 H          22.8648    3.8661   -0.0268 H       1  UNL1        0.0000
     27 C          26.7266    4.3612   -0.1970 C.2     1  UNL1        0.0000
     28 C          27.9250    3.8889   -0.8584 C.2     1  UNL1        0.0000
     29 C          27.8107    3.5627   -2.3067 C.ar    1  UNL1        0.0000
     30 C          27.8597    4.5581   -3.2773 C.ar    1  UNL1        0.0000
     31 H          27.9826    5.5888   -2.9745 H       1  UNL1        0.0000
     32 C          27.7596    4.2343   -4.6186 C.ar    1  UNL1        0.0000
     33 H          27.8033    5.0141   -5.3653 H       1  UNL1        0.0000
     34 C          27.6003    2.9137   -5.0046 C.ar    1  UNL1        0.0000
     35 H          27.5193    2.6624   -6.0517 H       1  UNL1        0.0000
     36 C          27.5416    1.9179   -4.0442 C.ar    1  UNL1        0.0000
     37 H          27.4106    0.8873   -4.3402 H       1  UNL1        0.0000
     38 C          27.6459    2.2401   -2.7031 C.ar    1  UNL1        0.0000
     39 H          27.5887    1.4647   -1.9519 H       1  UNL1        0.0000
     40 C          29.0622    3.7900   -0.1107 C.3     1  UNL1        0.0000
     41 C          30.9138    1.7220   -1.8201 C.3     1  UNL1        0.0000
     42 H          31.9441    1.5869   -2.1342 H       1  UNL1        0.0000
     43 H          30.2809    1.6035   -2.6940 H       1  UNL1        0.0000
     44 H          30.6768    0.9230   -1.1247 H       1  UNL1        0.0000
     45 C          31.0850    4.7716   -2.3499 C.3     1  UNL1        0.0000
     46 H          30.7885    5.7642   -2.0252 H       1  UNL1        0.0000
     47 H          30.5737    4.5612   -3.2832 H       1  UNL1        0.0000
     48 H          32.1509    4.7959   -2.5518 H       1  UNL1        0.0000
     49 C          32.0659    3.6056    0.2207 C.1     1  UNL1        0.0000
     50 C          33.0489    3.6704    0.9234 C.1     1  UNL1        0.0000
     51 C          34.1465    3.7395    1.8146 C.ar    1  UNL1        0.0000
     52 C          34.1607    2.9468    2.9641 C.ar    1  UNL1        0.0000
     53 H          33.3332    2.2789    3.1579 H       1  UNL1        0.0000
     54 C          35.2278    3.0177    3.8381 C.ar    1  UNL1        0.0000
     55 H          35.2358    2.4032    4.7267 H       1  UNL1        0.0000
     56 C          36.2869    3.8733    3.5785 C.ar    1  UNL1        0.0000
     57 H          37.1195    3.9254    4.2643 H       1  UNL1        0.0000
     58 C          36.2774    4.6613    2.4384 C.ar    1  UNL1        0.0000
     59 H          37.1034    5.3276    2.2365 H       1  UNL1        0.0000
     60 C          35.2148    4.5990    1.5579 C.ar    1  UNL1        0.0000
     61 H          35.1992    5.2110    0.6680 H       1  UNL1        0.0000
     62 H          25.9388    5.0774    1.4198 H       1  UNL1        0.0000
@<TRIPOS>BOND
     1    35    34    1
     2    33    32    1
     3    34    32   ar
     4    34    36   ar
     5    32    30   ar
     6    37    36    1
     7    36    38   ar
     8    47    45    1
     9    30    31    1
    10    30    29   ar
    11     9     8    1
    12     7     6    1
    13    38    29   ar
    14    38    39    1
    15    43    41    1
    16    48    45    1
    17    45    46    1
    18    45     1    1
    19    29    28    1
    20     8     6   ar
    21     8    10   ar
    22     6     5   ar
    23    42    41    1
    24     4     3    1
    25    41    44    1
    26    41     1    1
    27    11    10    1
    28    10    12   ar
    29     1    40    1
    30     1    49    1
    31     5     3    1
    32     5    14   ar
    33     3    16    1
    34     3    27    1
    35    28    27    2
    36    28    40    1
    37    18    17    1
    38    16    17   ar
    39    16    25   ar
    40    17    19   ar
    41    27     2    1
    42    26    25    1
    43    25    23   ar
    44    12    14   ar
    45    12    13    1
    46    14    15    1
    47    49    50    3
    48    19    20    1
    49    19    21   ar
    50    23    21   ar
    51    23    24    1
    52    61    60    1
    53    21    22    1
    54    50    51    1
    55     2    62    1
    56    60    51   ar
    57    60    58   ar
    58    51    52   ar
    59    59    58    1
    60    58    56   ar
    61    52    53    1
    62    52    54   ar
    63    56    54   ar
    64    56    57    1
    65    54    55    1
