@<TRIPOS>MOLECULE
1,6
 21 22 0 0 0
SMALL
GASTEIGER

@<TRIPOS>ATOM
      1 N           4.9584    2.2830    1.1307 N.3     1  UNL1       -0.2955
      2 C           5.2223    3.8394    2.9628 C.2     1  UNL1       -0.0706
      3 H           5.0396    4.8392    3.3270 H       1  UNL1        0.0585
      4 C           5.3892    2.7833    3.7769 C.2     1  UNL1       -0.0813
      5 H           5.3446    2.9157    4.8544 H       1  UNL1        0.0573
      6 C           5.5847    1.4278    3.2568 C.3     1  UNL1        0.0004
      7 H           6.2699    0.8294    3.8674 H       1  UNL1        0.0364
      8 C           7.3416    2.2884    1.5694 C.3     1  UNL1       -0.0351
      9 H           7.9573    1.8255    0.7965 H       1  UNL1        0.0281
     10 H           7.9218    2.3126    2.4909 H       1  UNL1        0.0281
     11 C           6.8882    3.6965    1.1597 C.3     1  UNL1       -0.0323
     12 H           7.0728    3.8918    0.1014 H       1  UNL1        0.0284
     13 H           7.3841    4.4752    1.7375 H       1  UNL1        0.0284
     14 C           5.3796    3.6494    1.4751 C.3     1  UNL1        0.0288
     15 H           4.8062    4.3882    0.9074 H       1  UNL1        0.0506
     16 C           6.0236    1.4990    1.7885 C.3     1  UNL1        0.0176
     17 H           6.0883    0.4979    1.3461 H       1  UNL1        0.0468
     18 C           4.8866    2.0694   -0.3075 C.3     1  UNL1       -0.0119
     19 H           4.1267    2.7283   -0.7296 H       1  UNL1        0.0391
     20 H           4.5913    1.0372   -0.4936 H       1  UNL1        0.0391
     21 H           5.8346    2.2578   -0.8256 H       1  UNL1        0.0391
@<TRIPOS>BOND
     1    21    18    1
     2    19    18    1
     3    20    18    1
     4    18     1    1
     5    12    11    1
     6     9     8    1
     7    15    14    1
     8     1    14    1
     9     1    16    1
    10    11    14    1
    11    11     8    1
    12    11    13    1
    13    17    16    1
    14    14     2    1
    15     8    16    1
    16     8    10    1
    17    16     6    1
    18     2     3    1
    19     2     4    2
    20     6     4    1
    21     6     7    1
    22     4     5    1
