@<TRIPOS>MOLECULE
1,2
 21 22 0 0 0
SMALL
GASTEIGER

@<TRIPOS>ATOM
      1 N           4.4056   -1.8314    2.8638 N.3     1  UNL1       -0.2955
      2 C           2.3645   -1.1234    1.8859 C.3     1  UNL1        0.0004
      3 H           1.2839   -1.2638    1.7586 H       1  UNL1        0.0364
      4 C           3.0842   -1.0484    0.6115 C.2     1  UNL1       -0.0813
      5 H           2.6015   -0.5418   -0.2217 H       1  UNL1        0.0573
      6 C           4.3166   -1.5627    0.4622 C.2     1  UNL1       -0.0706
      7 H           4.8724   -1.4997   -0.4615 H       1  UNL1        0.0585
      8 C           4.3933   -3.7876    1.4938 C.3     1  UNL1       -0.0323
      9 H           4.9999   -4.4859    2.0735 H       1  UNL1        0.0284
     10 H           4.3761   -4.1323    0.4608 H       1  UNL1        0.0284
     11 C           2.9831   -3.6301    2.0802 C.3     1  UNL1       -0.0351
     12 H           2.2251   -3.6706    1.2987 H       1  UNL1        0.0281
     13 H           2.7601   -4.4143    2.8051 H       1  UNL1        0.0281
     14 C           2.9889   -2.2291    2.7487 C.3     1  UNL1        0.0176
     15 H           2.5219   -2.2702    3.7393 H       1  UNL1        0.0468
     16 C           4.9330   -2.3478    1.5933 C.3     1  UNL1        0.0288
     17 H           6.0254   -2.2968    1.5758 H       1  UNL1        0.0506
     18 C           5.0755   -2.3926    4.0279 C.3     1  UNL1       -0.0119
     19 H           4.6276   -1.9683    4.9285 H       1  UNL1        0.0391
     20 H           6.1298   -2.1145    4.0031 H       1  UNL1        0.0391
     21 H           5.0063   -3.4853    4.0902 H       1  UNL1        0.0391
@<TRIPOS>BOND
     1     7     6    1
     2     5     4    1
     3    10     8    1
     4     6     4    2
     5     6    16    1
     6     4     2    1
     7    12    11    1
     8     8    16    1
     9     8     9    1
    10     8    11    1
    11    17    16    1
    12    16     1    1
    13     3     2    1
    14     2    14    1
    15    11    14    1
    16    11    13    1
    17    14     1    1
    18    14    15    1
    19     1    18    1
    20    20    18    1
    21    18    21    1
    22    18    19    1
