@<TRIPOS>MOLECULE
5,7
 76 79 0 0 0
SMALL
GASTEIGER

@<TRIPOS>ATOM
      1 P          -1.4520    4.3291    1.1116 P.3     1  UNL1        0.0000
      2 P          -0.4053    6.1592    3.2206 P.3     1  UNL1        0.0000
      3 SI         -2.7382    1.9868    2.2906 Si      1  UNL1        0.0000
      4 SI         -1.3732    5.0595    5.8709 Si      1  UNL1        0.0000
      5 N          -1.4294    3.1070    2.1260 N.3     1  UNL1        0.0000
      6 N          -0.8028    5.0415    4.2503 N.3     1  UNL1        0.0000
      7 C          -0.1209    5.4042    1.6286 C.3     1  UNL1        0.0000
      8 H           0.2630    6.0865    0.8646 H       1  UNL1        0.0000
      9 C          -0.9377    3.9036   -0.5868 C.ar    1  UNL1        0.0000
     10 C          -0.4994    2.6080   -0.8254 C.ar    1  UNL1        0.0000
     11 H          -0.5403    1.8951   -0.0116 H       1  UNL1        0.0000
     12 C          -0.0240    2.2541   -2.0751 C.ar    1  UNL1        0.0000
     13 H           0.3109    1.2439   -2.2635 H       1  UNL1        0.0000
     14 C           0.0245    3.1986   -3.0884 C.ar    1  UNL1        0.0000
     15 H           0.3948    2.9251   -4.0656 H       1  UNL1        0.0000
     16 C          -0.3936    4.4979   -2.8486 C.ar    1  UNL1        0.0000
     17 H          -0.3449    5.2349   -3.6376 H       1  UNL1        0.0000
     18 C          -0.8701    4.8535   -1.5993 C.ar    1  UNL1        0.0000
     19 H          -1.1886    5.8702   -1.4075 H       1  UNL1        0.0000
     20 C          -2.0442    0.2575    2.7155 C.3     1  UNL1        0.0000
     21 H          -1.4520   -0.1702    1.9126 H       1  UNL1        0.0000
     22 H          -2.8694   -0.4209    2.9044 H       1  UNL1        0.0000
     23 H          -1.4333    0.2826    3.6113 H       1  UNL1        0.0000
     24 C          -3.9682    2.4572    3.6731 C.3     1  UNL1        0.0000
     25 H          -3.4480    2.7540    4.5765 H       1  UNL1        0.0000
     26 H          -4.6034    1.6112    3.9170 H       1  UNL1        0.0000
     27 H          -4.6124    3.2787    3.3746 H       1  UNL1        0.0000
     28 C          -3.7481    1.8513    0.6654 C.3     1  UNL1        0.0000
     29 H          -3.1381    2.0869   -0.2030 H       1  UNL1        0.0000
     30 H          -4.5829    2.5465    0.6728 H       1  UNL1        0.0000
     31 H          -4.1547    0.8549    0.5234 H       1  UNL1        0.0000
     32 C          -3.0952    5.1052    0.9818 C.ar    1  UNL1        0.0000
     33 C          -3.8354    5.2845   -0.1782 C.ar    1  UNL1        0.0000
     34 H          -3.4517    4.9417   -1.1290 H       1  UNL1        0.0000
     35 C          -5.0778    5.8921   -0.1078 C.ar    1  UNL1        0.0000
     36 H          -5.6575    6.0323   -1.0091 H       1  UNL1        0.0000
     37 C          -5.5810    6.3176    1.1106 C.ar    1  UNL1        0.0000
     38 H          -6.5493    6.7948    1.1550 H       1  UNL1        0.0000
     39 C          -4.8493    6.1238    2.2723 C.ar    1  UNL1        0.0000
     40 H          -5.2447    6.4473    3.2242 H       1  UNL1        0.0000
     41 C          -3.6107    5.5165    2.2067 C.ar    1  UNL1        0.0000
     42 H          -3.0194    5.3392    3.0964 H       1  UNL1        0.0000
     43 C          -3.2083    5.5988    5.9884 C.3     1  UNL1        0.0000
     44 H          -3.3786    6.5672    5.5258 H       1  UNL1        0.0000
     45 H          -3.5244    5.6678    7.0252 H       1  UNL1        0.0000
     46 H          -3.8607    4.8845    5.4967 H       1  UNL1        0.0000
     47 C          -1.2161    3.2579    6.4804 C.3     1  UNL1        0.0000
     48 H          -0.2173    3.0456    6.8486 H       1  UNL1        0.0000
     49 H          -1.4318    2.5556    5.6822 H       1  UNL1        0.0000
     50 H          -1.9095    3.0652    7.2926 H       1  UNL1        0.0000
     51 C          -0.3873    6.1656    7.0946 C.3     1  UNL1        0.0000
     52 H          -0.0480    7.0907    6.6356 H       1  UNL1        0.0000
     53 H           0.4961    5.6533    7.4643 H       1  UNL1        0.0000
     54 H          -0.9922    6.4277    7.9575 H       1  UNL1        0.0000
     55 C           1.1466    7.0359    3.6376 C.ar    1  UNL1        0.0000
     56 C           1.5343    8.2198    3.0247 C.ar    1  UNL1        0.0000
     57 H           0.9046    8.6674    2.2673 H       1  UNL1        0.0000
     58 C           2.7244    8.8245    3.3901 C.ar    1  UNL1        0.0000
     59 H           3.0299    9.7448    2.9129 H       1  UNL1        0.0000
     60 C           3.5226    8.2557    4.3698 C.ar    1  UNL1        0.0000
     61 H           4.4477    8.7358    4.6544 H       1  UNL1        0.0000
     62 C           3.1354    7.0751    4.9843 C.ar    1  UNL1        0.0000
     63 H           3.7588    6.6358    5.7502 H       1  UNL1        0.0000
     64 C           1.9506    6.4664    4.6149 C.ar    1  UNL1        0.0000
     65 H           1.6173    5.5411    5.0635 H       1  UNL1        0.0000
     66 C          -1.5099    7.6214    3.0306 C.ar    1  UNL1        0.0000
     67 C          -1.8318    8.3427    4.1735 C.ar    1  UNL1        0.0000
     68 H          -1.4157    8.0312    5.1208 H       1  UNL1        0.0000
     69 C          -2.6705    9.4389    4.0974 C.ar    1  UNL1        0.0000
     70 H          -2.9207    9.9917    4.9916 H       1  UNL1        0.0000
     71 C          -3.1900    9.8285    2.8730 C.ar    1  UNL1        0.0000
     72 H          -3.8505   10.6811    2.8122 H       1  UNL1        0.0000
     73 C          -2.8548    9.1290    1.7262 C.ar    1  UNL1        0.0000
     74 H          -3.2498    9.4371    0.7686 H       1  UNL1        0.0000
     75 C          -2.0157    8.0321    1.8046 C.ar    1  UNL1        0.0000
     76 H          -1.7538    7.4897    0.9057 H       1  UNL1        0.0000
@<TRIPOS>BOND
     1    15    14    1
     2    17    16    1
     3    14    16   ar
     4    14    12   ar
     5    16    18   ar
     6    13    12    1
     7    12    10   ar
     8    18    19    1
     9    18     9   ar
    10    34    33    1
    11    36    35    1
    12    10     9   ar
    13    10    11    1
    14     9     1    1
    15    29    28    1
    16    33    35   ar
    17    33    32   ar
    18    35    37   ar
    19    31    28    1
    20    28    30    1
    21    28     3    1
    22    74    73    1
    23     8     7    1
    24    76    75    1
    25    32     1    1
    26    32    41   ar
    27    37    38    1
    28    37    39   ar
    29     1     7    1
    30     1     5    1
    31     7     2    1
    32    73    75   ar
    33    73    71   ar
    34    75    66   ar
    35    21    20    1
    36     5     3    1
    37    41    39   ar
    38    41    42    1
    39    57    56    1
    40    39    40    1
    41     3    20    1
    42     3    24    1
    43    20    22    1
    44    20    23    1
    45    72    71    1
    46    71    69   ar
    47    59    58    1
    48    56    58   ar
    49    56    55   ar
    50    66     2    1
    51    66    67   ar
    52     2    55    1
    53     2     6    1
    54    27    24    1
    55    58    60   ar
    56    55    64   ar
    57    24    26    1
    58    24    25    1
    59    69    67   ar
    60    69    70    1
    61    67    68    1
    62     6     4    1
    63    60    61    1
    64    60    62   ar
    65    64    62   ar
    66    64    65    1
    67    62    63    1
    68    46    43    1
    69    44    43    1
    70    49    47    1
    71     4    43    1
    72     4    47    1
    73     4    51    1
    74    43    45    1
    75    47    48    1
    76    47    50    1
    77    52    51    1
    78    51    53    1
    79    51    54    1
