@<TRIPOS>MOLECULE
1,11
 29 28 0 0 0
SMALL
GASTEIGER

@<TRIPOS>ATOM
      1 N           8.8127    1.9137   13.0911 N.3     1  UNL1       -0.2128
      2 N          10.3703    3.3188   13.8693 N.3     1  UNL1       -0.2726
      3 C           7.7154    0.9488   13.1059 C.3     1  UNL1        0.0219
      4 C           8.0275   -0.3050   13.9368 C.3     1  UNL1       -0.0483
      5 C           6.3597    1.5570   13.4756 C.3     1  UNL1       -0.0483
      6 C           9.3118    2.4873   14.1520 C.3     1  UNL1        0.1197
      7 C           8.8729    2.3279   15.5730 C.3     1  UNL1       -0.0286
      8 C          11.2122    3.9562   14.8923 C.3     1  UNL1        0.0070
      9 C          12.5767    3.2672   14.9244 C.3     1  UNL1       -0.0497
     10 C          11.3438    5.4569   14.6470 C.3     1  UNL1       -0.0497
     11 C          10.6626    3.4026   12.5602 C.3     1  UNL1        0.0467
     12 H           7.6305    0.6346   12.0579 H       1  UNL1        0.0472
     13 H           7.7371   -0.1978   14.9771 H       1  UNL1        0.0245
     14 H           7.4807   -1.1526   13.5321 H       1  UNL1        0.0245
     15 H           9.0915   -0.5297   13.9006 H       1  UNL1        0.0245
     16 H           6.3213    1.9043   14.5029 H       1  UNL1        0.0245
     17 H           6.1373    2.3927   12.8194 H       1  UNL1        0.0245
     18 H           5.5911    0.7991   13.3475 H       1  UNL1        0.0245
     19 H           8.6383    3.3026   15.9993 H       1  UNL1        0.0262
     20 H           7.9898    1.7095   15.6501 H       1  UNL1        0.0262
     21 H           9.6599    1.8676   16.1700 H       1  UNL1        0.0262
     22 H          10.7312    3.8164   15.8607 H       1  UNL1        0.0458
     23 H          13.1725    3.6680   15.7391 H       1  UNL1        0.0245
     24 H          12.4606    2.1963   15.0773 H       1  UNL1        0.0245
     25 H          13.1170    3.4287   13.9952 H       1  UNL1        0.0245
     26 H          10.3638    5.9249   14.6022 H       1  UNL1        0.0245
     27 H          11.8993    5.9050   15.4659 H       1  UNL1        0.0245
     28 H          11.8717    5.6725   13.7228 H       1  UNL1        0.0245
     29 H          11.5309    4.0335   12.3521 H       1  UNL1        0.0495
@<TRIPOS>BOND
     1    12     3    1
     2    29    11    1
     3    11     2    1
     4    17     5    1
     5     1     3    1
     6     1     6    1
     7     3     5    1
     8     3     4    1
     9    18     5    1
    10     5    16    1
    11    14     4    1
    12    28    10    1
    13     2     6    1
    14     2     8    1
    15    15     4    1
    16     4    13    1
    17    25     9    1
    18     6     7    1
    19    26    10    1
    20    10     8    1
    21    10    27    1
    22     8     9    1
    23     8    22    1
    24     9    24    1
    25     9    23    1
    26     7    20    1
    27     7    19    1
    28     7    21    1
