@<TRIPOS>MOLECULE
2,12
 42 41 0 0 0
SMALL
GASTEIGER

@<TRIPOS>ATOM
      1 SI         11.9198    0.6397    9.7305 Si      1  UNL1        0.0000
      2 N          15.5145    1.9322    8.6902 N.3     1  UNL1        0.0000
      3 N          13.3880    2.5428    8.2674 N.3     1  UNL1        0.0000
      4 C          16.8150    1.3312    8.3964 C.3     1  UNL1        0.0000
      5 C          17.7606    2.2069    7.5507 C.3     1  UNL1        0.0000
      6 C          16.6810   -0.0789    7.8121 C.3     1  UNL1        0.0000
      7 C          14.5965    2.2266    7.7960 C.3     1  UNL1        0.0000
      8 C          14.8394    2.2118    6.3169 C.3     1  UNL1        0.0000
      9 C          12.3154    3.2387    7.5522 C.3     1  UNL1        0.0000
     10 C          12.6822    4.7015    7.2909 C.3     1  UNL1        0.0000
     11 C          11.8179    2.5387    6.2853 C.3     1  UNL1        0.0000
     12 C          13.0974    2.1788    9.6516 C.3     1  UNL1        0.0000
     13 C          11.7788    0.1129   11.5584 C.3     1  UNL1        0.0000
     14 C          10.1405    1.0457    9.1653 C.3     1  UNL1        0.0000
     15 C          12.6907   -0.6967    8.6050 C.3     1  UNL1        0.0000
     16 H          17.2766    1.2156    9.3877 H       1  UNL1        0.0000
     17 H          18.7646    2.1706    7.9648 H       1  UNL1        0.0000
     18 H          17.8299    1.8556    6.5244 H       1  UNL1        0.0000
     19 H          17.4336    3.2438    7.5422 H       1  UNL1        0.0000
     20 H          16.0727   -0.6973    8.4685 H       1  UNL1        0.0000
     21 H          16.2281   -0.0683    6.8255 H       1  UNL1        0.0000
     22 H          17.6668   -0.5290    7.7336 H       1  UNL1        0.0000
     23 H          15.8823    2.0543    6.0850 H       1  UNL1        0.0000
     24 H          14.2583    1.4095    5.8676 H       1  UNL1        0.0000
     25 H          14.5324    3.1490    5.8640 H       1  UNL1        0.0000
     26 H          11.4815    3.2357    8.2584 H       1  UNL1        0.0000
     27 H          12.9401    5.1991    8.2232 H       1  UNL1        0.0000
     28 H          13.5202    4.8027    6.6074 H       1  UNL1        0.0000
     29 H          11.8283    5.2144    6.8572 H       1  UNL1        0.0000
     30 H          11.8480    1.4604    6.4113 H       1  UNL1        0.0000
     31 H          10.7862    2.8311    6.1072 H       1  UNL1        0.0000
     32 H          12.3886    2.8136    5.4048 H       1  UNL1        0.0000
     33 H          12.5795    3.0345   10.1106 H       1  UNL1        0.0000
     34 H          11.0764    0.7384   12.0996 H       1  UNL1        0.0000
     35 H          11.4161   -0.9071   11.6246 H       1  UNL1        0.0000
     36 H          12.7369    0.1549   12.0671 H       1  UNL1        0.0000
     37 H           9.7409    1.9241    9.6632 H       1  UNL1        0.0000
     38 H          10.0529    1.1994    8.0960 H       1  UNL1        0.0000
     39 H           9.4920    0.2142    9.4213 H       1  UNL1        0.0000
     40 H          12.8134   -1.6302    9.1436 H       1  UNL1        0.0000
     41 H          12.0672   -0.9068    7.7417 H       1  UNL1        0.0000
     42 H          13.6726   -0.3960    8.2490 H       1  UNL1        0.0000
@<TRIPOS>BOND
     1    32    11    1
     2    25     8    1
     3    24     8    1
     4    23     8    1
     5    31    11    1
     6    11    30    1
     7    11     9    1
     8     8     7    1
     9    18     5    1
    10    28    10    1
    11    21     6    1
    12    29    10    1
    13    10     9    1
    14    10    27    1
    15    19     5    1
    16     5    17    1
    17     5     4    1
    18     9    26    1
    19     9     3    1
    20    22     6    1
    21    41    15    1
    22     7     3    1
    23     7     2    1
    24     6     4    1
    25     6    20    1
    26    38    14    1
    27    42    15    1
    28     3    12    1
    29     4     2    1
    30     4    16    1
    31    15    40    1
    32    15     1    1
    33    14    39    1
    34    14    37    1
    35    14     1    1
    36    12     1    1
    37    12    33    1
    38     1    13    1
    39    13    35    1
    40    13    36    1
    41    13    34    1
