@<TRIPOS>MOLECULE
1,10
 22 22 0 0 0
SMALL
GASTEIGER

@<TRIPOS>ATOM
      1 N           7.8634   10.5685    2.2670 N.pl3   1  UNL1       -0.3358
      2 C           7.4844   11.4685    1.1724 C.3     1  UNL1        0.0004
      3 H           8.2578   11.4866    0.3924 H       1  UNL1        0.0428
      4 H           7.3522   12.4790    1.5586 H       1  UNL1        0.0428
      5 H           6.5535   11.1394    0.7178 H       1  UNL1        0.0428
      6 C           9.1507   11.0235    2.7998 C.3     1  UNL1        0.0004
      7 H           9.5544   10.2827    3.4891 H       1  UNL1        0.0428
      8 H           8.9956   11.9664    3.3284 H       1  UNL1        0.0428
      9 H           9.8907   11.2056    2.0090 H       1  UNL1        0.0428
     10 C           5.4342    9.0739    2.3562 C.3     1  UNL1       -0.0219
     11 H           4.6366    8.3192    2.3445 H       1  UNL1        0.0317
     12 H           5.1289    9.8744    1.6625 H       1  UNL1        0.0317
     13 C           7.8885    9.1963    1.7882 C.ar    1  UNL1        0.0324
     14 C           6.6900    8.4534    1.8870 C.ar    1  UNL1       -0.0261
     15 C           6.7450    7.0990    1.5360 C.ar    1  UNL1       -0.0568
     16 H           5.8469    6.5027    1.6235 H       1  UNL1        0.0621
     17 C           7.9056    6.5089    1.0792 C.ar    1  UNL1       -0.0614
     18 H           7.9104    5.4610    0.8194 H       1  UNL1        0.0618
     19 C           9.0554    7.2653    0.9386 C.ar    1  UNL1       -0.0600
     20 H           9.9635    6.8214    0.5594 H       1  UNL1        0.0618
     21 C           9.0409    8.6036    1.2987 C.ar    1  UNL1       -0.0404
     22 H           9.9517    9.1755    1.2000 H       1  UNL1        0.0636
@<TRIPOS>BOND
     1     3     2    1
     2    20    19    1
     3     5     2    1
     4    18    17    1
     5    19    17   ar
     6    19    21   ar
     7    17    15   ar
     8     2     4    1
     9     2     1    1
    10    22    21    1
    11    21    13   ar
    12    15    16    1
    13    15    14   ar
    14    12    10    1
    15    13    14   ar
    16    13     1    1
    17    14    10    1
    18     9     6    1
    19     1     6    1
    20    11    10    1
    21     6     8    1
    22     6     7    1
