@<TRIPOS>MOLECULE
1,10
 22 22 0 0 0
SMALL
GASTEIGER

@<TRIPOS>ATOM
      1 N           3.5504   10.7959    4.6699 N.pl3   1  UNL1       -0.3358
      2 C           2.6607   11.4200    3.6850 C.3     1  UNL1        0.0004
      3 H           1.6764   11.6346    4.1232 H       1  UNL1        0.0428
      4 H           2.5273   10.7490    2.8354 H       1  UNL1        0.0428
      5 H           3.0818   12.3584    3.3324 H       1  UNL1        0.0428
      6 C           2.8848    9.6032    5.1954 C.3     1  UNL1        0.0004
      7 H           3.4671    9.1932    6.0187 H       1  UNL1        0.0428
      8 H           2.8238    8.8598    4.3978 H       1  UNL1        0.0428
      9 H           1.8622    9.8104    5.5394 H       1  UNL1        0.0428
     10 C           5.8041   12.4400    4.1741 C.3     1  UNL1       -0.0219
     11 H           6.6339   13.1592    4.1688 H       1  UNL1        0.0317
     12 H           5.1734   12.6517    3.2974 H       1  UNL1        0.0317
     13 C           3.9144   11.7632    5.6919 C.ar    1  UNL1        0.0324
     14 C           5.0457   12.5743    5.4302 C.ar    1  UNL1       -0.0261
     15 C           5.4418   13.4670    6.4343 C.ar    1  UNL1       -0.0568
     16 H           6.3077   14.0916    6.2614 H       1  UNL1        0.0621
     17 C           4.7655   13.5623    7.6328 C.ar    1  UNL1       -0.0614
     18 H           5.1021   14.2584    8.3864 H       1  UNL1        0.0618
     19 C           3.6542   12.7717    7.8645 C.ar    1  UNL1       -0.0600
     20 H           3.1132   12.8440    8.7957 H       1  UNL1        0.0618
     21 C           3.2340   11.8774    6.8918 C.ar    1  UNL1       -0.0404
     22 H           2.3692   11.2631    7.0930 H       1  UNL1        0.0636
@<TRIPOS>BOND
     1     4     2    1
     2    12    10    1
     3     5     2    1
     4     2     3    1
     5     2     1    1
     6    11    10    1
     7    10    14    1
     8     8     6    1
     9     1     6    1
    10     1    13    1
    11     6     9    1
    12     6     7    1
    13    14    13   ar
    14    14    15   ar
    15    13    21   ar
    16    16    15    1
    17    15    17   ar
    18    21    22    1
    19    21    19   ar
    20    17    19   ar
    21    17    18    1
    22    19    20    1
