@<TRIPOS>MOLECULE
1,2
 22 22 0 0 0
SMALL
GASTEIGER

@<TRIPOS>ATOM
      1 N           5.3893   10.4739    4.8620 N.pl3   1  UNL1       -0.3358
      2 C           2.9495   11.7213    4.1143 C.3     1  UNL1       -0.0219
      3 H           1.9855   12.2299    4.0119 H       1  UNL1        0.0317
      4 H           2.9934   10.8946    3.3906 H       1  UNL1        0.0317
      5 C           3.1527   11.2618    5.4897 C.ar    1  UNL1       -0.0261
      6 C           4.3446   10.5924    5.8728 C.ar    1  UNL1        0.0324
      7 C           4.5076   10.1362    7.1692 C.ar    1  UNL1       -0.0404
      8 H           5.4047    9.6093    7.4587 H       1  UNL1        0.0636
      9 C           3.5334   10.3628    8.1313 C.ar    1  UNL1       -0.0600
     10 H           3.6794   10.0028    9.1382 H       1  UNL1        0.0618
     11 C           2.3878   11.0623    7.7908 C.ar    1  UNL1       -0.0614
     12 H           1.6329   11.2581    8.5384 H       1  UNL1        0.0618
     13 C           2.2014   11.4965    6.4944 C.ar    1  UNL1       -0.0568
     14 H           1.2970   12.0287    6.2333 H       1  UNL1        0.0621
     15 C           5.1993    9.2477    4.0755 C.3     1  UNL1        0.0004
     16 H           5.4098    8.3589    4.6860 H       1  UNL1        0.0428
     17 H           5.8644    9.2534    3.2107 H       1  UNL1        0.0428
     18 H           4.1730    9.1765    3.7209 H       1  UNL1        0.0428
     19 C           6.7421   10.4506    5.4259 C.3     1  UNL1        0.0004
     20 H           6.8649   11.2696    6.1356 H       1  UNL1        0.0428
     21 H           7.4623   10.5596    4.6127 H       1  UNL1        0.0428
     22 H           6.9615    9.5023    5.9363 H       1  UNL1        0.0428
@<TRIPOS>BOND
     1    17    15    1
     2     4     2    1
     3    18    15    1
     4     3     2    1
     5    15    16    1
     6    15     1    1
     7     2     5    1
     8    21    19    1
     9     1    19    1
    10     1     6    1
    11    19    22    1
    12    19    20    1
    13     5     6   ar
    14     5    13   ar
    15     6     7   ar
    16    14    13    1
    17    13    11   ar
    18     7     8    1
    19     7     9   ar
    20    11     9   ar
    21    11    12    1
    22     9    10    1
