@<TRIPOS>MOLECULE
2,3
 51 52 0 0 0
SMALL
GASTEIGER

@<TRIPOS>ATOM
      1 SI          3.6821    5.1891    3.1718 Si      1  UNL1        0.0000
      2 N           3.4160    5.9710    4.6880 N.pl3   1  UNL1        0.0000
      3 C           2.0485    5.7304    2.3018 C.3     1  UNL1        0.0000
      4 C           1.9544    6.7542    1.2730 C.2     1  UNL1        0.0000
      5 C           0.8414    6.5028    0.4952 C.2     1  UNL1        0.0000
      6 C           0.1956    5.3289    0.9907 C.2     1  UNL1        0.0000
      7 C           0.9156    4.8529    2.0700 C.2     1  UNL1        0.0000
      8 C           2.9797    7.8249    1.0266 C.3     1  UNL1        0.0000
      9 H           2.5225    8.7223    0.6095 H       1  UNL1        0.0000
     10 H           3.7269    7.4763    0.3105 H       1  UNL1        0.0000
     11 H           3.4934    8.0954    1.9502 H       1  UNL1        0.0000
     12 C           0.3461    7.2815   -0.6828 C.3     1  UNL1        0.0000
     13 H           0.2794    6.6388   -1.5613 H       1  UNL1        0.0000
     14 H           1.0128    8.1071   -0.9176 H       1  UNL1        0.0000
     15 H          -0.6505    7.6875   -0.4948 H       1  UNL1        0.0000
     16 C          -1.0391    4.7405    0.3830 C.3     1  UNL1        0.0000
     17 H          -1.7684    5.5182    0.1530 H       1  UNL1        0.0000
     18 H          -1.5034    4.0166    1.0502 H       1  UNL1        0.0000
     19 H          -0.8006    4.2280   -0.5508 H       1  UNL1        0.0000
     20 C           0.6467    3.5770    2.8137 C.3     1  UNL1        0.0000
     21 H          -0.4239    3.3792    2.8774 H       1  UNL1        0.0000
     22 H           1.0587    3.6225    3.8225 H       1  UNL1        0.0000
     23 H           1.1036    2.7299    2.2981 H       1  UNL1        0.0000
     24 C           3.9027    3.2781    3.2700 C.3     1  UNL1        0.0000
     25 H           4.9068    3.0427    3.6101 H       1  UNL1        0.0000
     26 H           3.7736    2.8226    2.2939 H       1  UNL1        0.0000
     27 H           3.2077    2.8009    3.9504 H       1  UNL1        0.0000
     28 C           5.3034    5.6555    2.2489 C.3     1  UNL1        0.0000
     29 H           5.3630    6.6981    1.9637 H       1  UNL1        0.0000
     30 H           5.4203    5.0630    1.3474 H       1  UNL1        0.0000
     31 H           6.1511    5.4434    2.8943 H       1  UNL1        0.0000
     32 C           4.2987    6.1749    5.7377 C.ar    1  UNL1        0.0000
     33 C           4.3736    5.2571    6.8029 C.ar    1  UNL1        0.0000
     34 C           5.2397    5.4849    7.8580 C.ar    1  UNL1        0.0000
     35 H           5.2857    4.7650    8.6647 H       1  UNL1        0.0000
     36 C           6.0488    6.6105    7.9067 C.ar    1  UNL1        0.0000
     37 C           5.9559    7.5267    6.8680 C.ar    1  UNL1        0.0000
     38 H           6.5771    8.4132    6.8912 H       1  UNL1        0.0000
     39 C           5.0987    7.3341    5.7992 C.ar    1  UNL1        0.0000
     40 C           3.4991    4.0380    6.7864 C.3     1  UNL1        0.0000
     41 H           3.9676    3.2457    6.2042 H       1  UNL1        0.0000
     42 H           2.5420    4.2740    6.3109 H       1  UNL1        0.0000
     43 H           3.3272    3.6691    7.7961 H       1  UNL1        0.0000
     44 C           6.9691    6.8541    9.0663 C.3     1  UNL1        0.0000
     45 H           6.4700    7.4611    9.8236 H       1  UNL1        0.0000
     46 H           7.8631    7.3855    8.7463 H       1  UNL1        0.0000
     47 H           7.2657    5.9157    9.5292 H       1  UNL1        0.0000
     48 C           5.0033    8.3589    4.7075 C.3     1  UNL1        0.0000
     49 H           5.4976    7.9965    3.8074 H       1  UNL1        0.0000
     50 H           5.4718    9.2944    5.0080 H       1  UNL1        0.0000
     51 H           3.9492    8.5468    4.4550 H       1  UNL1        0.0000
@<TRIPOS>BOND
     1    13    12    1
     2    14    12    1
     3    12    15    1
     4    12     5    1
     5    19    16    1
     6    17    16    1
     7    10     8    1
     8    16     6    1
     9    16    18    1
    10     5     6    1
    11     5     4    2
    12     9     8    1
    13     6     7    2
    14     8     4    1
    15     8    11    1
    16     4     3    1
    17    30    28    1
    18    29    28    1
    19     7     3    1
    20     7    20    1
    21    28    31    1
    22    28     1    1
    23    26    24    1
    24    23    20    1
    25     3     1    1
    26    20    21    1
    27    20    22    1
    28     1    24    1
    29     1     2    1
    30    24    25    1
    31    24    27    1
    32    49    48    1
    33    51    48    1
    34     2    32    1
    35    48    50    1
    36    48    39    1
    37    32    39   ar
    38    32    33   ar
    39    39    37   ar
    40    41    40    1
    41    42    40    1
    42    40    33    1
    43    40    43    1
    44    33    34   ar
    45    37    38    1
    46    37    36   ar
    47    34    36   ar
    48    34    35    1
    49    36    44    1
    50    46    44    1
    51    44    47    1
    52    44    45    1
