@<TRIPOS>MOLECULE
2,4
 51 52 0 0 0
SMALL
GASTEIGER

@<TRIPOS>ATOM
      1 SI          7.4139   20.8662    5.7802 Si      1  UNL1        0.0000
      2 N           7.3558   20.9053    4.0602 N.pl3   1  UNL1        0.0000
      3 C           7.9918   19.0756    6.0371 C.2     1  UNL1        0.0000
      4 C           9.1380   18.5342    5.2885 C.3     1  UNL1        0.0000
      5 C           9.2078   17.1258    5.6084 C.2     1  UNL1        0.0000
      6 C           8.1749   16.8248    6.4752 C.2     1  UNL1        0.0000
      7 C           7.4336   18.0218    6.7362 C.2     1  UNL1        0.0000
      8 C          10.4304   19.3190    5.1079 C.3     1  UNL1        0.0000
      9 H          10.9856   19.2958    6.0506 H       1  UNL1        0.0000
     10 H          10.2368   20.3640    4.8655 H       1  UNL1        0.0000
     11 H          11.0739   18.8839    4.3371 H       1  UNL1        0.0000
     12 C          10.3111   16.2208    5.1478 C.3     1  UNL1        0.0000
     13 H          10.0085   15.1751    5.1889 H       1  UNL1        0.0000
     14 H          11.1900   16.3357    5.7858 H       1  UNL1        0.0000
     15 H          10.6076   16.4578    4.1233 H       1  UNL1        0.0000
     16 C           7.8931   15.4995    7.1110 C.3     1  UNL1        0.0000
     17 H           8.3826   15.4341    8.0849 H       1  UNL1        0.0000
     18 H           8.2651   14.6775    6.5004 H       1  UNL1        0.0000
     19 H           6.8252   15.3563    7.2724 H       1  UNL1        0.0000
     20 C           6.2874   18.0775    7.6952 C.3     1  UNL1        0.0000
     21 H           6.5745   17.6199    8.6427 H       1  UNL1        0.0000
     22 H           5.4111   17.5377    7.3261 H       1  UNL1        0.0000
     23 H           6.0027   19.1063    7.8840 H       1  UNL1        0.0000
     24 C           5.7160   21.3344    6.5493 C.3     1  UNL1        0.0000
     25 H           5.3661   22.2507    6.0831 H       1  UNL1        0.0000
     26 H           5.8000   21.5249    7.6137 H       1  UNL1        0.0000
     27 H           4.9514   20.5780    6.4047 H       1  UNL1        0.0000
     28 C           8.5959   22.0869    6.6867 C.3     1  UNL1        0.0000
     29 H           9.6008   22.0903    6.2790 H       1  UNL1        0.0000
     30 H           8.6749   21.8258    7.7379 H       1  UNL1        0.0000
     31 H           8.2126   23.1016    6.6311 H       1  UNL1        0.0000
     32 C           6.8181   21.9157    3.2783 C.ar    1  UNL1        0.0000
     33 C           5.4945   21.8243    2.7926 C.ar    1  UNL1        0.0000
     34 C           4.9805   22.8093    1.9664 C.ar    1  UNL1        0.0000
     35 H           3.9583   22.7225    1.6180 H       1  UNL1        0.0000
     36 C           5.7345   23.9087    1.5845 C.ar    1  UNL1        0.0000
     37 C           7.0339   24.0016    2.0646 C.ar    1  UNL1        0.0000
     38 H           7.6384   24.8540    1.7832 H       1  UNL1        0.0000
     39 C           7.5799   23.0414    2.8983 C.ar    1  UNL1        0.0000
     40 C           4.6443   20.6455    3.1690 C.3     1  UNL1        0.0000
     41 H           4.3586   20.7075    4.2179 H       1  UNL1        0.0000
     42 H           5.2097   19.7118    3.0381 H       1  UNL1        0.0000
     43 H           3.7395   20.6120    2.5632 H       1  UNL1        0.0000
     44 C           5.1784   24.9638    0.6741 C.3     1  UNL1        0.0000
     45 H           5.7073   24.9625   -0.2797 H       1  UNL1        0.0000
     46 H           5.2950   25.9521    1.1166 H       1  UNL1        0.0000
     47 H           4.1217   24.7933    0.4815 H       1  UNL1        0.0000
     48 C           8.9827   23.2094    3.4011 C.3     1  UNL1        0.0000
     49 H           9.5994   23.7264    2.6681 H       1  UNL1        0.0000
     50 H           9.4220   22.2391    3.6269 H       1  UNL1        0.0000
     51 H           8.9839   23.7946    4.3199 H       1  UNL1        0.0000
@<TRIPOS>BOND
     1    45    44    1
     2    47    44    1
     3    44    46    1
     4    44    36    1
     5    36    34   ar
     6    36    37   ar
     7    35    34    1
     8    38    37    1
     9    34    33   ar
    10    37    39   ar
    11    43    40    1
    12    49    48    1
    13    33    40    1
    14    33    32   ar
    15    39    32   ar
    16    39    48    1
    17    42    40    1
    18    40    41    1
    19    32     2    1
    20    48    50    1
    21    48    51    1
    22     2     1    1
    23    15    12    1
    24    11     8    1
    25    10     8    1
    26     8     4    1
    27     8     9    1
    28    12    13    1
    29    12     5    1
    30    12    14    1
    31     4     5    1
    32     4     3    1
    33     5     6    2
    34     1     3    1
    35     1    24    1
    36     1    28    1
    37     3     7    2
    38    25    24    1
    39    29    28    1
    40    27    24    1
    41     6     7    1
    42     6    16    1
    43    18    16    1
    44    24    26    1
    45    31    28    1
    46    28    30    1
    47     7    20    1
    48    16    19    1
    49    16    17    1
    50    22    20    1
    51    20    23    1
    52    20    21    1
