@<TRIPOS>MOLECULE
1,2
 22 22 0 0 0
SMALL
GASTEIGER

@<TRIPOS>ATOM
      1 N           4.5626    6.5061    4.1838 N.pl3   1  UNL1       -0.3358
      2 C           2.8831    4.3230    4.9402 C.3     1  UNL1       -0.0219
      3 H           2.2564    4.6965    4.1161 H       1  UNL1        0.0317
      4 H           2.2713    3.5757    5.4641 H       1  UNL1        0.0317
      5 C           3.1711    5.4331    5.8824 C.ar    1  UNL1       -0.0261
      6 C           3.9784    6.5318    5.5053 C.ar    1  UNL1        0.0324
      7 C           4.2521    7.5377    6.4182 C.ar    1  UNL1       -0.0404
      8 H           4.8587    8.3839    6.1323 H       1  UNL1        0.0636
      9 C           3.7642    7.4807    7.7148 C.ar    1  UNL1       -0.0600
     10 H           3.9857    8.2783    8.4087 H       1  UNL1        0.0618
     11 C           2.9989    6.3979    8.1081 C.ar    1  UNL1       -0.0614
     12 H           2.6226    6.3365    9.1189 H       1  UNL1        0.0618
     13 C           2.7070    5.3975    7.2007 C.ar    1  UNL1       -0.0568
     14 H           2.1071    4.5540    7.5164 H       1  UNL1        0.0621
     15 C           5.8401    7.2089    4.0815 C.3     1  UNL1        0.0004
     16 H           5.7260    8.3008    4.1301 H       1  UNL1        0.0428
     17 H           6.2865    6.9648    3.1172 H       1  UNL1        0.0428
     18 H           6.5037    6.8857    4.8832 H       1  UNL1        0.0428
     19 C           3.6459    7.0620    3.1852 C.3     1  UNL1        0.0004
     20 H           2.6638    6.6032    3.2732 H       1  UNL1        0.0428
     21 H           4.0403    6.8739    2.1856 H       1  UNL1        0.0428
     22 H           3.5274    8.1462    3.3208 H       1  UNL1        0.0428
@<TRIPOS>BOND
     1    21    19    1
     2    17    15    1
     3    19    20    1
     4    19    22    1
     5    19     1    1
     6    15    16    1
     7    15     1    1
     8    15    18    1
     9     3     2    1
    10     1     6    1
    11     2     4    1
    12     2     5    1
    13     6     5   ar
    14     6     7   ar
    15     5    13   ar
    16     8     7    1
    17     7     9   ar
    18    13    14    1
    19    13    11   ar
    20     9    11   ar
    21     9    10    1
    22    11    12    1
