@<TRIPOS>MOLECULE
1,11
 30 32 0 0 0
SMALL
GASTEIGER

@<TRIPOS>ATOM
      1 N           0.6257    5.2096    0.1323 N.pl3   1  UNL1       -0.2404
      2 C          -0.1460    6.2583    0.4127 C.3     1  UNL1        0.0853
      3 H          -0.9565    6.0937    1.1104 H       1  UNL1        0.0584
      4 C           0.0360    7.5068   -0.1408 C.2     1  UNL1       -0.0523
      5 H          -0.6315    8.3133    0.1178 H       1  UNL1        0.0598
      6 C           1.0803    7.7049   -1.0479 C.2     1  UNL1       -0.0181
      7 C           1.8743    6.6058   -1.3496 C.2     1  UNL1       -0.0310
      8 H           2.7049    6.7191   -2.0271 H       1  UNL1        0.0643
      9 C           1.6372    5.3706   -0.7551 C.2     1  UNL1        0.0568
     10 C           2.4097    4.1631   -1.0068 C.ar    1  UNL1        0.0053
     11 C           2.0294    3.0433   -0.2379 C.ar    1  UNL1       -0.0083
     12 C           2.7243    1.8557   -0.4400 C.ar    1  UNL1       -0.0534
     13 H           2.4621    0.9710    0.1243 H       1  UNL1        0.0624
     14 C           3.7542    1.7736   -1.3621 C.ar    1  UNL1       -0.0611
     15 H           4.2784    0.8384   -1.5008 H       1  UNL1        0.0618
     16 C           4.1186    2.8838   -2.1086 C.ar    1  UNL1       -0.0611
     17 H           4.9244    2.8152   -2.8247 H       1  UNL1        0.0618
     18 C           3.4486    4.0767   -1.9331 C.ar    1  UNL1       -0.0522
     19 H           3.7383    4.9376   -2.5175 H       1  UNL1        0.0624
     20 C           1.3269    9.0164   -1.6575 C.ar    1  UNL1       -0.0181
     21 C           1.6919    9.1176   -2.9986 C.ar    1  UNL1       -0.0540
     22 H           1.7718    8.2230   -3.5988 H       1  UNL1        0.0624
     23 C           1.9214   10.3545   -3.5711 C.ar    1  UNL1       -0.0612
     24 H           2.1972   10.4205   -4.6134 H       1  UNL1        0.0618
     25 C           1.7987   11.5069   -2.8126 C.ar    1  UNL1       -0.0617
     26 H           1.9824   12.4722   -3.2601 H       1  UNL1        0.0618
     27 C           1.4406   11.4163   -1.4777 C.ar    1  UNL1       -0.0612
     28 H           1.3489   12.3118   -0.8809 H       1  UNL1        0.0618
     29 C           1.2015   10.1817   -0.9040 C.ar    1  UNL1       -0.0540
     30 H           0.9422   10.1148    0.1422 H       1  UNL1        0.0624
@<TRIPOS>BOND
     1    24    23    1
     2    22    21    1
     3    23    21   ar
     4    23    25   ar
     5    26    25    1
     6    21    20   ar
     7    17    16    1
     8    25    27   ar
     9    19    18    1
    10    16    18   ar
    11    16    14   ar
    12     8     7    1
    13    18    10   ar
    14    20     6    1
    15    20    29   ar
    16    15    14    1
    17    27    29   ar
    18    27    28    1
    19    14    12   ar
    20     7     6    1
    21     7     9    2
    22     6     4    2
    23    10     9    1
    24    10    11   ar
    25    29    30    1
    26     9     1    1
    27    12    11   ar
    28    12    13    1
    29     4     5    1
    30     4     2    1
    31     1     2    1
    32     2     3    1
