@<TRIPOS>MOLECULE
1,11
 30 32 0 0 0
SMALL
GASTEIGER

@<TRIPOS>ATOM
      1 N           0.6716    1.7133    2.0737 N.pl3   1  UNL1       -0.2404
      2 C           1.4823    1.4574    3.0987 C.3     1  UNL1        0.0853
      3 H           2.1718    2.2455    3.3700 H       1  UNL1        0.0584
      4 C           1.4638    0.2646    3.7890 C.2     1  UNL1       -0.0523
      5 H           2.1283    0.1170    4.6251 H       1  UNL1        0.0598
      6 C           0.5596   -0.7319    3.4101 C.2     1  UNL1       -0.0181
      7 C          -0.2736   -0.4620    2.3299 C.2     1  UNL1       -0.0310
      8 H          -0.9646   -1.2154    1.9874 H       1  UNL1        0.0643
      9 C          -0.2023    0.7593    1.6695 C.2     1  UNL1        0.0568
     10 C          -1.0014    1.1490    0.5156 C.ar    1  UNL1        0.0053
     11 C          -0.7171    2.4381    0.0076 C.ar    1  UNL1       -0.0083
     12 C          -1.4417    2.8609   -1.1034 C.ar    1  UNL1       -0.0534
     13 H          -1.2494    3.8364   -1.5293 H       1  UNL1        0.0624
     14 C          -2.4063    2.0558   -1.6860 C.ar    1  UNL1       -0.0611
     15 H          -2.9528    2.4091   -2.5491 H       1  UNL1        0.0618
     16 C          -2.6763    0.7969   -1.1698 C.ar    1  UNL1       -0.0611
     17 H          -3.4309    0.1736   -1.6267 H       1  UNL1        0.0618
     18 C          -1.9746    0.3420   -0.0722 C.ar    1  UNL1       -0.0522
     19 H          -2.1878   -0.6397    0.3250 H       1  UNL1        0.0624
     20 C           0.4950   -2.0145    4.1200 C.ar    1  UNL1       -0.0181
     21 C           1.6608   -2.6454    4.5494 C.ar    1  UNL1       -0.0540
     22 H           2.6196   -2.1956    4.3378 H       1  UNL1        0.0624
     23 C           1.5988   -3.8550    5.2152 C.ar    1  UNL1       -0.0612
     24 H           2.5099   -4.3378    5.5363 H       1  UNL1        0.0618
     25 C           0.3734   -4.4480    5.4704 C.ar    1  UNL1       -0.0617
     26 H           0.3262   -5.3910    5.9943 H       1  UNL1        0.0618
     27 C          -0.7915   -3.8265    5.0518 C.ar    1  UNL1       -0.0612
     28 H          -1.7497   -4.2827    5.2529 H       1  UNL1        0.0618
     29 C          -0.7327   -2.6213    4.3778 C.ar    1  UNL1       -0.0540
     30 H          -1.6452   -2.1318    4.0698 H       1  UNL1        0.0624
@<TRIPOS>BOND
     1    15    14    1
     2    14    16   ar
     3    14    12   ar
     4    17    16    1
     5    13    12    1
     6    16    18   ar
     7    12    11   ar
     8    18    19    1
     9    18    10   ar
    10    11    10   ar
    11    10     9    1
    12     9     1    1
    13     9     7    2
    14     8     7    1
    15     1     2    1
    16     7     6    1
    17     2     3    1
    18     2     4    1
    19     6     4    2
    20     6    20    1
    21     4     5    1
    22    30    29    1
    23    20    29   ar
    24    20    21   ar
    25    22    21    1
    26    29    27   ar
    27    21    23   ar
    28    27    28    1
    29    27    25   ar
    30    23    25   ar
    31    23    24    1
    32    25    26    1
