@<TRIPOS>MOLECULE
34
 34 37 0 0 0
SMALL
GASTEIGER

@<TRIPOS>ATOM
      1 C           1.1378    1.7126   10.6009 C.3     1  UNL1        0.0379
      2 C           2.3066    1.5373   11.4291 C.ar    1  UNL1       -0.0279
      3 C           2.0030    1.9244   12.7736 C.ar    1  UNL1       -0.0135
      4 C           0.6175    2.2856   12.8229 C.ar    1  UNL1       -0.0135
      5 C           0.0799    2.1188   11.5060 C.ar    1  UNL1       -0.0279
      6 C          -1.3034    2.2667   11.3082 C.ar    1  UNL1       -0.0571
      7 H          -1.7456    2.0743   10.3362 H       1  UNL1        0.0621
      8 C          -2.0981    2.6317   12.3736 C.ar    1  UNL1       -0.0614
      9 H          -3.1640    2.7437   12.2319 H       1  UNL1        0.0618
     10 C          -1.5569    2.8488   13.6432 C.ar    1  UNL1       -0.0612
     11 H          -2.2095    3.1385   14.4540 H       1  UNL1        0.0618
     12 C          -0.2087    2.6685   13.8757 C.ar    1  UNL1       -0.0537
     13 H           0.1965    2.7957   14.8712 H       1  UNL1        0.0624
     14 C           2.9738    1.8507   13.7656 C.ar    1  UNL1       -0.0537
     15 H           2.7398    2.1420   14.7810 H       1  UNL1        0.0624
     16 C           4.2292    1.3737   13.4465 C.ar    1  UNL1       -0.0612
     17 H           4.9921    1.3037   14.2088 H       1  UNL1        0.0618
     18 C           4.5199    0.9539   12.1457 C.ar    1  UNL1       -0.0614
     19 H           5.5031    0.5601   11.9288 H       1  UNL1        0.0618
     20 C           3.5792    1.0273   11.1420 C.ar    1  UNL1       -0.0571
     21 H           3.8259    0.6881   10.1438 H       1  UNL1        0.0621
     22 C           0.8420    0.8170    9.4130 C.3     1  UNL1       -0.0090
     23 H           1.7564    0.2961    9.1112 H       1  UNL1        0.0302
     24 H           0.1277    0.0368    9.7140 H       1  UNL1        0.0302
     25 C           0.2705    1.5040    8.2043 C.3     1  UNL1        0.0989
     26 C          -0.1511    0.7514    7.1074 C.2     1  UNL1       -0.0567
     27 H          -0.0556   -0.3238    7.1297 H       1  UNL1        0.0595
     28 C          -0.6813    1.3925    6.0069 C.2     1  UNL1       -0.0623
     29 H          -1.0075    0.8306    5.1443 H       1  UNL1        0.0616
     30 C          -0.7909    2.7776    6.0356 C.2     1  UNL1       -0.0466
     31 H          -1.2073    3.3208    5.2026 H       1  UNL1        0.0630
     32 C          -0.3532    3.4480    7.1604 C.2     1  UNL1        0.0125
     33 H          -0.4265    4.5257    7.2338 H       1  UNL1        0.0797
     34 N           0.1741    2.8343    8.2218 N.pl3   1  UNL1       -0.2451
@<TRIPOS>BOND
     1    29    28    1
     2    31    30    1
     3    28    30    1
     4    28    26    2
     5    30    32    2
     6    26    27    1
     7    26    25    1
     8    32    33    1
     9    32    34    1
    10    25    34    1
    11    25    22    1
    12    23    22    1
    13    22    24    1
    14    22     1    1
    15    21    20    1
    16     7     6    1
    17     1     2    1
    18     1     5    1
    19    20     2   ar
    20    20    18   ar
    21     6     5   ar
    22     6     8   ar
    23     2     3   ar
    24     5     4   ar
    25    19    18    1
    26    18    16   ar
    27     9     8    1
    28     8    10   ar
    29     3     4    1
    30     3    14   ar
    31     4    12   ar
    32    16    14   ar
    33    16    17    1
    34    10    12   ar
    35    10    11    1
    36    14    15    1
    37    12    13    1
