@<TRIPOS>MOLECULE
2,3
 49 51 0 0 0
SMALL
GASTEIGER

@<TRIPOS>ATOM
      1 SI          4.8273    2.7730    2.8499 Si      1  UNL1        0.0000
      2 N           3.2494    2.0833    2.5940 N.3     1  UNL1        0.0000
      3 C           2.6574    1.4884    1.6540 C.3     1  UNL1        0.0000
      4 C           3.0169    1.4706    0.2176 C.3     1  UNL1        0.0000
      5 H           3.8588    2.1332    0.0065 H       1  UNL1        0.0000
      6 H           2.1552    1.7668   -0.3794 H       1  UNL1        0.0000
      7 H           3.2715    0.4501   -0.0682 H       1  UNL1        0.0000
      8 C           6.1143    1.3926    2.7138 C.ar    1  UNL1        0.0000
      9 C           5.7435    0.0891    2.3929 C.ar    1  UNL1        0.0000
     10 H           4.7005   -0.1393    2.2042 H       1  UNL1        0.0000
     11 C           6.6829   -0.9208    2.3258 C.ar    1  UNL1        0.0000
     12 H           6.3706   -1.9262    2.0822 H       1  UNL1        0.0000
     13 C           8.0267   -0.6630    2.5753 C.ar    1  UNL1        0.0000
     14 C           8.4014    0.6350    2.8959 C.ar    1  UNL1        0.0000
     15 H           9.4406    0.8571    3.0966 H       1  UNL1        0.0000
     16 C           7.4592    1.6441    2.9678 C.ar    1  UNL1        0.0000
     17 H           7.7695    2.6466    3.2282 H       1  UNL1        0.0000
     18 C           9.0327   -1.7709    2.5094 C.3     1  UNL1        0.0000
     19 H           8.8240   -2.5120    3.2803 H       1  UNL1        0.0000
     20 H          10.0416   -1.3933    2.6562 H       1  UNL1        0.0000
     21 H           8.9831   -2.2742    1.5448 H       1  UNL1        0.0000
     22 C           4.7624    3.4603    4.6091 C.ar    1  UNL1        0.0000
     23 C           4.3449    2.6333    5.6498 C.ar    1  UNL1        0.0000
     24 H           4.0623    1.6122    5.4307 H       1  UNL1        0.0000
     25 C           4.2846    3.0988    6.9491 C.ar    1  UNL1        0.0000
     26 H           3.9622    2.4389    7.7434 H       1  UNL1        0.0000
     27 C           4.6386    4.4091    7.2530 C.ar    1  UNL1        0.0000
     28 C           5.0628    5.2347    6.2198 C.ar    1  UNL1        0.0000
     29 H           5.3456    6.2557    6.4365 H       1  UNL1        0.0000
     30 C           5.1276    4.7651    4.9207 C.ar    1  UNL1        0.0000
     31 H           5.4637    5.4238    4.1319 H       1  UNL1        0.0000
     32 C           4.5853    4.9049    8.6660 C.3     1  UNL1        0.0000
     33 H           5.4867    4.6016    9.1997 H       1  UNL1        0.0000
     34 H           3.7300    4.4858    9.1924 H       1  UNL1        0.0000
     35 H           4.5230    5.9902    8.6964 H       1  UNL1        0.0000
     36 C           5.1155    4.1343    1.5620 C.ar    1  UNL1        0.0000
     37 C           4.2830    5.2493    1.5048 C.ar    1  UNL1        0.0000
     38 H           3.4599    5.3305    2.2013 H       1  UNL1        0.0000
     39 C           4.4926    6.2550    0.5827 C.ar    1  UNL1        0.0000
     40 H           3.8342    7.1127    0.5605 H       1  UNL1        0.0000
     41 C           5.5478    6.1818   -0.3205 C.ar    1  UNL1        0.0000
     42 C           6.3797    5.0715   -0.2719 C.ar    1  UNL1        0.0000
     43 H           7.2061    4.9937   -0.9649 H       1  UNL1        0.0000
     44 C           6.1661    4.0658    0.6532 C.ar    1  UNL1        0.0000
     45 H           6.8271    3.2109    0.6728 H       1  UNL1        0.0000
     46 C           5.7634    7.2735   -1.3233 C.3     1  UNL1        0.0000
     47 H           6.7259    7.1652   -1.8169 H       1  UNL1        0.0000
     48 H           5.7221    8.2495   -0.8426 H       1  UNL1        0.0000
     49 H           4.9823    7.2443   -2.0833 H       1  UNL1        0.0000
@<TRIPOS>BOND
     1    49    46    1
     2    47    46    1
     3    46    48    1
     4    46    41    1
     5    43    42    1
     6     6     4    1
     7    41    42   ar
     8    41    39   ar
     9    42    44   ar
    10     7     4    1
    11     5     4    1
    12     4     3    1
    13    40    39    1
    14    39    37   ar
    15    44    45    1
    16    44    36   ar
    17    37    36   ar
    18    37    38    1
    19    21    18    1
    20    36     1    1
    21     3     2    1
    22    12    11    1
    23    10     9    1
    24    11     9   ar
    25    11    13   ar
    26     9     8   ar
    27    18    13    1
    28    18    20    1
    29    18    19    1
    30    13    14   ar
    31     2     1    1
    32     8     1    1
    33     8    16   ar
    34     1    22    1
    35    14    16   ar
    36    14    15    1
    37    16    17    1
    38    31    30    1
    39    22    30   ar
    40    22    23   ar
    41    30    28   ar
    42    24    23    1
    43    23    25   ar
    44    28    29    1
    45    28    27   ar
    46    25    27   ar
    47    25    26    1
    48    27    32    1
    49    32    35    1
    50    32    34    1
    51    32    33    1
