@<TRIPOS>MOLECULE
3,15
 35 37 0 0 0
SMALL
GASTEIGER

@<TRIPOS>ATOM
      1 S          -0.6406   -3.2960  -11.8186 S.3     1  UNL1        0.0000
      2 SI         -1.2983   -1.6510   -5.6692 Si      1  UNL1        0.0000
      3 N          -1.5539   -4.7977   -9.9289 N.pl3   1  UNL1        0.0000
      4 C          -1.2723   -4.7967  -11.2110 C.3     1  UNL1        0.0000
      5 C          -0.7611   -2.6312  -10.2131 C.ar    1  UNL1        0.0000
      6 C          -0.4232   -1.3646   -9.7683 C.ar    1  UNL1        0.0000
      7 H          -0.0408   -0.6279  -10.4577 H       1  UNL1        0.0000
      8 C          -0.5887   -1.0765   -8.4283 C.ar    1  UNL1        0.0000
      9 H          -0.3355   -0.0898   -8.0725 H       1  UNL1        0.0000
     10 C          -1.0622   -2.0269   -7.5168 C.ar    1  UNL1        0.0000
     11 C          -1.3882   -3.2907   -7.9787 C.ar    1  UNL1        0.0000
     12 H          -1.7323   -4.0532   -7.2996 H       1  UNL1        0.0000
     13 C          -1.2652   -3.6031   -9.3282 C.ar    1  UNL1        0.0000
     14 C          -1.4660   -6.0023  -11.9575 C.ar    1  UNL1        0.0000
     15 C          -2.0198   -7.0444  -11.1804 C.ar    1  UNL1        0.0000
     16 C          -2.2186   -8.2648  -11.8187 C.ar    1  UNL1        0.0000
     17 H          -2.6373   -9.1040  -11.2779 H       1  UNL1        0.0000
     18 C          -1.8786   -8.4361  -13.1513 C.ar    1  UNL1        0.0000
     19 H          -2.0371   -9.3969  -13.6214 H       1  UNL1        0.0000
     20 C          -1.3416   -7.3931  -13.8957 C.ar    1  UNL1        0.0000
     21 H          -1.0906   -7.5434  -14.9353 H       1  UNL1        0.0000
     22 C          -1.1328   -6.1674  -13.3010 C.ar    1  UNL1        0.0000
     23 H          -0.7208   -5.3374  -13.8584 H       1  UNL1        0.0000
     24 C          -3.1516   -1.8728   -5.2636 C.3     1  UNL1        0.0000
     25 H          -3.3687   -1.6027   -4.2344 H       1  UNL1        0.0000
     26 H          -3.4511   -2.9073   -5.4043 H       1  UNL1        0.0000
     27 H          -3.7736   -1.2578   -5.9077 H       1  UNL1        0.0000
     28 C          -0.2711   -2.9030   -4.6597 C.3     1  UNL1        0.0000
     29 H          -0.4248   -2.7721   -3.5928 H       1  UNL1        0.0000
     30 H           0.7914   -2.7924   -4.8543 H       1  UNL1        0.0000
     31 H          -0.5424   -3.9247   -4.9078 H       1  UNL1        0.0000
     32 C          -0.7499    0.1279   -5.2641 C.3     1  UNL1        0.0000
     33 H          -0.8716    0.3372   -4.2058 H       1  UNL1        0.0000
     34 H          -1.3347    0.8616   -5.8101 H       1  UNL1        0.0000
     35 H           0.2959    0.2872   -5.5083 H       1  UNL1        0.0000
@<TRIPOS>BOND
     1    21    20    1
     2    20    22   ar
     3    20    18   ar
     4    23    22    1
     5    19    18    1
     6    22    14   ar
     7    18    16   ar
     8    14     4    1
     9    14    15   ar
    10    16    17    1
    11    16    15   ar
    12     1     4    1
    13     1     5    1
    14     4     3    1
    15     7     6    1
    16     5     6   ar
    17     5    13   ar
    18     3    13    1
    19     6     8   ar
    20    13    11   ar
    21     8     9    1
    22     8    10   ar
    23    11    10   ar
    24    11    12    1
    25    10     2    1
    26    27    24    1
    27    34    32    1
    28     2    32    1
    29     2    24    1
    30     2    28    1
    31    35    32    1
    32    26    24    1
    33    32    33    1
    34    24    25    1
    35    31    28    1
    36    30    28    1
    37    28    29    1
