@<TRIPOS>MOLECULE
3,15
 35 37 0 0 0
SMALL
GASTEIGER

@<TRIPOS>ATOM
      1 S          -3.8882  -10.2170   -7.4974 S.3     1  UNL1        0.0000
      2 SI         -8.2302   -7.6870  -11.4822 Si      1  UNL1        0.0000
      3 N          -3.6003   -8.0848   -8.9199 N.pl3   1  UNL1        0.0000
      4 C          -2.9594   -8.8662   -8.0840 C.3     1  UNL1        0.0000
      5 C          -5.2295   -9.6793   -8.4773 C.ar    1  UNL1        0.0000
      6 C          -6.4852  -10.2426   -8.6254 C.ar    1  UNL1        0.0000
      7 H          -6.7546  -11.1317   -8.0763 H       1  UNL1        0.0000
      8 C          -7.3711   -9.6404   -9.4980 C.ar    1  UNL1        0.0000
      9 H          -8.3517  -10.0737   -9.6204 H       1  UNL1        0.0000
     10 C          -7.0347   -8.5020  -10.2405 C.ar    1  UNL1        0.0000
     11 C          -5.7762   -7.9493  -10.0766 C.ar    1  UNL1        0.0000
     12 H          -5.4708   -7.0792  -10.6359 H       1  UNL1        0.0000
     13 C          -4.8713   -8.5177   -9.1857 C.ar    1  UNL1        0.0000
     14 C          -1.5994   -8.5485   -7.7674 C.ar    1  UNL1        0.0000
     15 C          -1.1476   -7.3753   -8.4170 C.ar    1  UNL1        0.0000
     16 C           0.1710   -6.9990   -8.1772 C.ar    1  UNL1        0.0000
     17 H           0.5752   -6.1106   -8.6455 H       1  UNL1        0.0000
     18 C           0.9902   -7.7491   -7.3484 C.ar    1  UNL1        0.0000
     19 H           2.0126   -7.4372   -7.1855 H       1  UNL1        0.0000
     20 C           0.5197   -8.8964   -6.7208 C.ar    1  UNL1        0.0000
     21 H           1.1713   -9.4664   -6.0752 H       1  UNL1        0.0000
     22 C          -0.7812   -9.3024   -6.9276 C.ar    1  UNL1        0.0000
     23 H          -1.1739  -10.1895   -6.4494 H       1  UNL1        0.0000
     24 C          -7.2578   -7.2470  -13.0563 C.3     1  UNL1        0.0000
     25 H          -7.9190   -6.8752  -13.8331 H       1  UNL1        0.0000
     26 H          -6.7228   -8.1033  -13.4565 H       1  UNL1        0.0000
     27 H          -6.5309   -6.4674  -12.8516 H       1  UNL1        0.0000
     28 C          -9.6376   -8.9131  -11.8850 C.3     1  UNL1        0.0000
     29 H         -10.2815   -8.5118  -12.6612 H       1  UNL1        0.0000
     30 H         -10.2620   -9.1112  -11.0190 H       1  UNL1        0.0000
     31 H          -9.2517   -9.8636  -12.2404 H       1  UNL1        0.0000
     32 C          -8.9552   -6.1088  -10.6961 C.3     1  UNL1        0.0000
     33 H          -9.6205   -5.6016  -11.3881 H       1  UNL1        0.0000
     34 H          -8.1673   -5.4075  -10.4381 H       1  UNL1        0.0000
     35 H          -9.5213   -6.3278   -9.7953 H       1  UNL1        0.0000
@<TRIPOS>BOND
     1    25    24    1
     2    26    24    1
     3    24    27    1
     4    24     2    1
     5    29    28    1
     6    31    28    1
     7    28     2    1
     8    28    30    1
     9     2    32    1
    10     2    10    1
    11    33    32    1
    12    32    34    1
    13    32    35    1
    14    12    11    1
    15    10    11   ar
    16    10     8   ar
    17    11    13   ar
    18     9     8    1
    19     8     6   ar
    20    13     3    1
    21    13     5   ar
    22     3     4    1
    23    17    16    1
    24     6     5   ar
    25     6     7    1
    26     5     1    1
    27    15    16   ar
    28    15    14   ar
    29    16    18   ar
    30     4    14    1
    31     4     1    1
    32    14    22   ar
    33    18    19    1
    34    18    20   ar
    35    22    20   ar
    36    22    23    1
    37    20    21    1
