@<TRIPOS>MOLECULE
2
 44 44 0 0 0
SMALL
GASTEIGER

@<TRIPOS>ATOM
      1 SI          2.7254    3.6409    6.4030 Si      1  UNL1        0.0000
      2 N           2.3973    2.9842    4.8443 N.3     1  UNL1        0.0000
      3 C           4.0903    2.3677    6.8164 C.3     1  UNL1        0.0000
      4 C           5.3276    2.3683    6.0924 C.2     1  UNL1        0.0000
      5 C           5.7812    1.0341    5.9506 C.2     1  UNL1        0.0000
      6 C           4.8313    0.1826    6.5914 C.2     1  UNL1        0.0000
      7 C           3.7994    1.0010    7.1231 C.2     1  UNL1        0.0000
      8 C           6.1254    3.5987    5.7534 C.3     1  UNL1        0.0000
      9 H           6.4887    4.0640    6.6728 H       1  UNL1        0.0000
     10 H           5.5297    4.3433    5.2263 H       1  UNL1        0.0000
     11 H           6.9932    3.3511    5.1433 H       1  UNL1        0.0000
     12 C           7.1002    0.5803    5.3823 C.3     1  UNL1        0.0000
     13 H           7.8625    0.5422    6.1655 H       1  UNL1        0.0000
     14 H           7.4560    1.2520    4.5998 H       1  UNL1        0.0000
     15 H           7.0175   -0.4202    4.9549 H       1  UNL1        0.0000
     16 C           4.9856   -1.3030    6.7803 C.3     1  UNL1        0.0000
     17 H           5.6800   -1.5183    7.5969 H       1  UNL1        0.0000
     18 H           5.3768   -1.7767    5.8773 H       1  UNL1        0.0000
     19 H           4.0295   -1.7678    7.0199 H       1  UNL1        0.0000
     20 C           2.7339    0.5233    8.0710 C.3     1  UNL1        0.0000
     21 H           3.1133    0.5611    9.0961 H       1  UNL1        0.0000
     22 H           2.4417   -0.5067    7.8680 H       1  UNL1        0.0000
     23 H           1.8480    1.1490    8.0223 H       1  UNL1        0.0000
     24 C           1.5539    3.5025    3.7846 C.3     1  UNL1        0.0000
     25 C           0.1250    3.8030    4.2735 C.3     1  UNL1        0.0000
     26 H           0.1574    4.5520    5.0592 H       1  UNL1        0.0000
     27 H          -0.3404    2.9055    4.6731 H       1  UNL1        0.0000
     28 H          -0.4865    4.1780    3.4558 H       1  UNL1        0.0000
     29 C           2.1345    4.8019    3.1890 C.3     1  UNL1        0.0000
     30 H           3.1508    4.6405    2.8316 H       1  UNL1        0.0000
     31 H           2.1520    5.5763    3.9502 H       1  UNL1        0.0000
     32 H           1.5252    5.1449    2.3557 H       1  UNL1        0.0000
     33 C           1.4853    2.4387    2.6647 C.3     1  UNL1        0.0000
     34 H           2.4806    2.2890    2.2283 H       1  UNL1        0.0000
     35 H           0.8075    2.7656    1.8759 H       1  UNL1        0.0000
     36 H           1.1189    1.4874    3.0714 H       1  UNL1        0.0000
     37 C           3.3441    5.4638    6.5124 C.3     1  UNL1        0.0000
     38 H           2.4971    6.1400    6.5761 H       1  UNL1        0.0000
     39 H           3.9364    5.7698    5.6566 H       1  UNL1        0.0000
     40 H           3.9469    5.6194    7.4008 H       1  UNL1        0.0000
     41 C           1.2557    3.6444    7.6492 C.3     1  UNL1        0.0000
     42 H           0.7039    4.5760    7.5733 H       1  UNL1        0.0000
     43 H           1.6029    3.5619    8.6735 H       1  UNL1        0.0000
     44 H           0.5519    2.8387    7.4671 H       1  UNL1        0.0000
@<TRIPOS>BOND
     1    35    33    1
     2    34    33    1
     3    32    29    1
     4    33    36    1
     5    33    24    1
     6    30    29    1
     7    29    24    1
     8    29    31    1
     9    28    25    1
    10    24    25    1
    11    24     2    1
    12    25    27    1
    13    25    26    1
    14    14    12    1
    15     2     1    1
    16    15    12    1
    17    11     8    1
    18    10     8    1
    19    12     5    1
    20    12    13    1
    21    39    37    1
    22     8     4    1
    23     8     9    1
    24    18    16    1
    25     5     4    2
    26     5     6    1
    27     4     3    1
    28     1    37    1
    29     1     3    1
    30     1    41    1
    31    37    38    1
    32    37    40    1
    33     6    16    1
    34     6     7    2
    35    16    19    1
    36    16    17    1
    37     3     7    1
    38     7    20    1
    39    44    41    1
    40    42    41    1
    41    41    43    1
    42    22    20    1
    43    23    20    1
    44    20    21    1
