@<TRIPOS>MOLECULE
1,38
 49 52 0 0 0
SMALL
GASTEIGER

@<TRIPOS>ATOM
      1 N           4.3175    0.5128    2.9725 N.pl3   1  UNL1       -0.2380
      2 C           5.3886    1.1841    2.4798 C.ar    1  UNL1        0.0488
      3 C           6.4360    0.6538    1.7003 C.ar    1  UNL1       -0.0391
      4 H           6.4297   -0.3905    1.4302 H       1  UNL1        0.0637
      5 C           7.4661    1.4621    1.2652 C.ar    1  UNL1       -0.0600
      6 H           8.2587    1.0289    0.6714 H       1  UNL1        0.0618
      7 C           7.5014    2.8138    1.5716 C.ar    1  UNL1       -0.0616
      8 H           8.3112    3.4339    1.2202 H       1  UNL1        0.0618
      9 C           6.4740    3.3620    2.3281 C.ar    1  UNL1       -0.0600
     10 H           6.4855    4.4186    2.5611 H       1  UNL1        0.0618
     11 C           5.4390    2.5707    2.7801 C.ar    1  UNL1       -0.0391
     12 H           4.6062    2.9940    3.3655 H       1  UNL1        0.0637
     13 C           4.1587   -0.9191    2.7599 C.3     1  UNL1        0.0937
     14 H           5.0560   -1.4704    3.1124 H       1  UNL1        0.0618
     15 C           3.9217   -1.2585    1.3019 C.ar    1  UNL1       -0.0210
     16 C           2.9206   -0.5879    0.6109 C.ar    1  UNL1       -0.0564
     17 H           2.3482    0.1701    1.1277 H       1  UNL1        0.0621
     18 C           2.6565   -0.8909   -0.7113 C.ar    1  UNL1       -0.0614
     19 H           1.8751   -0.3632   -1.2388 H       1  UNL1        0.0618
     20 C           3.3866   -1.8738   -1.3583 C.ar    1  UNL1       -0.0617
     21 H           3.1791   -2.1137   -2.3907 H       1  UNL1        0.0618
     22 C           4.3826   -2.5493   -0.6757 C.ar    1  UNL1       -0.0614
     23 H           4.9546   -3.3186   -1.1739 H       1  UNL1        0.0618
     24 C           4.6489   -2.2422    0.6469 C.ar    1  UNL1       -0.0564
     25 H           5.4285   -2.7779    1.1719 H       1  UNL1        0.0621
     26 C           2.9370   -1.3752    3.5742 C.2     1  UNL1       -0.0056
     27 C           2.3123   -2.6372    3.1225 C.ar    1  UNL1       -0.0191
     28 C           0.9608   -2.6611    2.7856 C.ar    1  UNL1       -0.0542
     29 H           0.3822   -1.7523    2.8725 H       1  UNL1        0.0624
     30 C           0.3666   -3.8253    2.3389 C.ar    1  UNL1       -0.0612
     31 H          -0.6816   -3.8273    2.0767 H       1  UNL1        0.0618
     32 C           1.1117   -4.9868    2.2210 C.ar    1  UNL1       -0.0617
     33 H           0.6482   -5.8964    1.8680 H       1  UNL1        0.0618
     34 C           2.4540   -4.9767    2.5589 C.ar    1  UNL1       -0.0612
     35 H           3.0391   -5.8815    2.4744 H       1  UNL1        0.0618
     36 C           3.0505   -3.8118    3.0041 C.ar    1  UNL1       -0.0542
     37 H           4.0954   -3.8166    3.2798 H       1  UNL1        0.0624
     38 C           2.4777   -0.5772    4.5576 C.2     1  UNL1       -0.0039
     39 C           1.3503   -0.9380    5.4146 C.ar    1  UNL1       -0.0169
     40 C           1.1514   -2.2201    5.9399 C.ar    1  UNL1       -0.0540
     41 H           1.8432   -3.0105    5.6855 H       1  UNL1        0.0624
     42 C           0.0906   -2.4782    6.7871 C.ar    1  UNL1       -0.0612
     43 H          -0.0444   -3.4734    7.1863 H       1  UNL1        0.0618
     44 C          -0.8023   -1.4736    7.1234 C.ar    1  UNL1       -0.0617
     45 H          -1.6345   -1.6830    7.7787 H       1  UNL1        0.0618
     46 C          -0.6112   -0.1933    6.6250 C.ar    1  UNL1       -0.0612
     47 H          -1.2977    0.5963    6.8982 H       1  UNL1        0.0618
     48 C           0.4595    0.0766    5.7961 C.ar    1  UNL1       -0.0540
     49 H           0.6472    1.0874    5.4337 H       1  UNL1        0.0624
@<TRIPOS>BOND
     1    21    20    1
     2    20    18   ar
     3    20    22   ar
     4    19    18    1
     5    23    22    1
     6    18    16   ar
     7    22    24   ar
     8    16    17    1
     9    16    15   ar
    10    24    25    1
    11    24    15   ar
    12     6     5    1
    13     8     7    1
    14     5     7   ar
    15     5     3   ar
    16    15    13    1
    17     4     3    1
    18     7     9   ar
    19     3     2   ar
    20    33    32    1
    21    31    30    1
    22    32    30   ar
    23    32    34   ar
    24     9    10    1
    25     9    11   ar
    26    30    28   ar
    27    35    34    1
    28     2    11   ar
    29     2     1    1
    30    34    36   ar
    31    13     1    1
    32    13    14    1
    33    13    26    1
    34    11    12    1
    35    28    29    1
    36    28    27   ar
    37    36    27   ar
    38    36    37    1
    39    27    26    1
    40    26    38    2
    41    38    39    1
    42    39    48   ar
    43    39    40   ar
    44    49    48    1
    45    41    40    1
    46    48    46   ar
    47    40    42   ar
    48    46    47    1
    49    46    44   ar
    50    42    44   ar
    51    42    43    1
    52    44    45    1
