@<TRIPOS>MOLECULE
1,2
 25 26 0 0 0
SMALL
GASTEIGER

@<TRIPOS>ATOM
      1 N          10.1829    3.2547    2.8617 N.pl3   1  UNL1       -0.2405
      2 C          11.3215    2.3645    2.8941 C.3     1  UNL1        0.0918
      3 H          11.7790    2.1774    1.9021 H       1  UNL1        0.0590
      4 C          10.1067    4.2757    1.9647 C.ar    1  UNL1        0.0485
      5 C          11.2075    4.7940    1.2553 C.ar    1  UNL1       -0.0391
      6 H          12.1915    4.3823    1.4284 H       1  UNL1        0.0637
      7 C          11.0436    5.8403    0.3717 C.ar    1  UNL1       -0.0600
      8 H          11.9024    6.2192   -0.1655 H       1  UNL1        0.0618
      9 C           9.7988    6.4159    0.1683 C.ar    1  UNL1       -0.0616
     10 H           9.6813    7.2333   -0.5268 H       1  UNL1        0.0618
     11 C           8.7085    5.9426    0.8862 C.ar    1  UNL1       -0.0600
     12 H           7.7372    6.3990    0.7506 H       1  UNL1        0.0618
     13 C           8.8552    4.8970    1.7702 C.ar    1  UNL1       -0.0391
     14 H           8.0131    4.5279    2.3519 H       1  UNL1        0.0637
     15 C          12.2946    2.5512    3.9400 C.ar    1  UNL1       -0.0232
     16 C          13.5757    1.9669    3.8599 C.ar    1  UNL1       -0.0567
     17 H          13.8574    1.4413    2.9541 H       1  UNL1        0.0621
     18 C          14.4860    2.0867    4.8879 C.ar    1  UNL1       -0.0614
     19 H          15.4605    1.6264    4.7951 H       1  UNL1        0.0618
     20 C          14.1710    2.8078    6.0305 C.ar    1  UNL1       -0.0617
     21 H          14.8877    2.9036    6.8321 H       1  UNL1        0.0618
     22 C          12.9343    3.4347    6.1112 C.ar    1  UNL1       -0.0614
     23 H          12.6934    4.0321    6.9804 H       1  UNL1        0.0618
     24 C          12.0127    3.3121    5.0937 C.ar    1  UNL1       -0.0567
     25 H          11.0628    3.8281    5.1504 H       1  UNL1        0.0621
@<TRIPOS>BOND
     1    10     9    1
     2     8     7    1
     3     9     7   ar
     4     9    11   ar
     5     7     5   ar
     6    12    11    1
     7    11    13   ar
     8     5     6    1
     9     5     4   ar
    10    13     4   ar
    11    13    14    1
    12     3     2    1
    13     4     1    1
    14     1     2    1
    15     2    15    1
    16    17    16    1
    17    16    15   ar
    18    16    18   ar
    19    15    24   ar
    20    19    18    1
    21    18    20   ar
    22    24    25    1
    23    24    22   ar
    24    20    22   ar
    25    20    21    1
    26    22    23    1
