@<TRIPOS>MOLECULE
1,2
 22 22 0 0 0
SMALL
GASTEIGER

@<TRIPOS>ATOM
      1 N           2.4738   -0.7023    2.6344 N.pl3   1  UNL1       -0.3358
      2 C           0.3344    0.8761    2.0604 C.3     1  UNL1       -0.0219
      3 H           0.5312    0.6260    1.0050 H       1  UNL1        0.0317
      4 H          -0.5579    1.5113    2.0797 H       1  UNL1        0.0317
      5 C           0.1013   -0.3490    2.8407 C.ar    1  UNL1       -0.0261
      6 C           1.0363   -2.3445    3.8515 C.ar    1  UNL1       -0.0404
      7 H           1.8754   -2.9893    4.0654 H       1  UNL1        0.0636
      8 C          -0.2171   -2.6918    4.3364 C.ar    1  UNL1       -0.0600
      9 H          -0.3367   -3.5993    4.9089 H       1  UNL1        0.0618
     10 C          -1.3041   -1.8723    4.0899 C.ar    1  UNL1       -0.0614
     11 H          -2.2786   -2.1379    4.4732 H       1  UNL1        0.0618
     12 C          -1.1465   -0.7167    3.3451 C.ar    1  UNL1       -0.0568
     13 H          -2.0032   -0.0884    3.1407 H       1  UNL1        0.0621
     14 C           1.2013   -1.1777    3.1247 C.ar    1  UNL1        0.0324
     15 C           2.6868   -1.1981    1.2683 C.3     1  UNL1        0.0004
     16 H           2.8066   -2.2914    1.2685 H       1  UNL1        0.0428
     17 H           3.5888   -0.7420    0.8558 H       1  UNL1        0.0428
     18 H           1.8384   -0.9512    0.6290 H       1  UNL1        0.0428
     19 C           3.6048   -1.1363    3.4540 C.3     1  UNL1        0.0004
     20 H           3.3905   -0.9495    4.5041 H       1  UNL1        0.0428
     21 H           3.8233   -2.2046    3.3196 H       1  UNL1        0.0428
     22 H           4.4883   -0.5709    3.1537 H       1  UNL1        0.0428
@<TRIPOS>BOND
     1    18    15    1
     2    17    15    1
     3     3     2    1
     4    15    16    1
     5    15     1    1
     6     2     4    1
     7     2     5    1
     8     1    14    1
     9     1    19    1
    10     5    14   ar
    11     5    12   ar
    12    14     6   ar
    13    13    12    1
    14    22    19    1
    15    21    19    1
    16    12    10   ar
    17    19    20    1
    18     6     7    1
    19     6     8   ar
    20    10     8   ar
    21    10    11    1
    22     8     9    1
