@<TRIPOS>MOLECULE
1,2
 22 22 0 0 0
SMALL
GASTEIGER

@<TRIPOS>ATOM
      1 N           3.2748   -2.0537    5.0940 N.3     1  UNL1       -0.3042
      2 C           3.5867   -0.9525    2.6792 C.ar    1  UNL1       -0.0132
      3 C           4.1290   -0.3751    1.5292 C.ar    1  UNL1       -0.0537
      4 H           4.1532    0.7059    1.4495 H       1  UNL1        0.0624
      5 C           4.6268   -1.1368    0.4816 C.ar    1  UNL1       -0.0612
      6 H           5.0398   -0.6516   -0.3925 H       1  UNL1        0.0618
      7 C           4.5918   -2.5191    0.5471 C.ar    1  UNL1       -0.0614
      8 H           4.9718   -3.1170   -0.2686 H       1  UNL1        0.0618
      9 C           4.0744   -3.1298    1.6759 C.ar    1  UNL1       -0.0568
     10 H           4.0510   -4.2099    1.7475 H       1  UNL1        0.0621
     11 C           3.5873   -2.3532    2.7182 C.ar    1  UNL1       -0.0257
     12 C           3.0530   -2.9821    3.9788 C.3     1  UNL1        0.0240
     13 H           3.5410   -3.9527    4.1765 H       1  UNL1        0.0476
     14 H           1.9760   -3.1647    3.8832 H       1  UNL1        0.0476
     15 C           4.7130   -2.0230    5.3919 C.3     1  UNL1       -0.0127
     16 H           5.2720   -1.6828    4.5149 H       1  UNL1        0.0391
     17 H           5.0688   -3.0265    5.6704 H       1  UNL1        0.0391
     18 H           4.9012   -1.3399    6.2217 H       1  UNL1        0.0391
     19 C           2.5784   -2.5492    6.2808 C.3     1  UNL1       -0.0127
     20 H           2.7106   -1.8442    7.1017 H       1  UNL1        0.0391
     21 H           1.5155   -2.6570    6.0710 H       1  UNL1        0.0391
     22 H           2.9756   -3.5287    6.5853 H       1  UNL1        0.0391
@<TRIPOS>BOND
     1     6     5    1
     2     8     7    1
     3     5     7   ar
     4     5     3   ar
     5     7     9   ar
     6     4     3    1
     7     3     2   ar
     8     9    10    1
     9     9    11   ar
    10     2    11   ar
    11    11    12    1
    12    14    12    1
    13    12    13    1
    14    12     1    1
    15    16    15    1
    16     1    15    1
    17     1    19    1
    18    15    17    1
    19    15    18    1
    20    21    19    1
    21    19    22    1
    22    19    20    1
