@<TRIPOS>MOLECULE
3,9
 26 25 0 0 0
SMALL
GASTEIGER

@<TRIPOS>ATOM
      1 SI         12.1708    9.0852    9.2918 Si      1  UNL1        0.0000
      2 SI         13.7543    9.3439   11.9101 Si      1  UNL1        0.0000
      3 N          13.6648    9.3149   10.1473 N.3     1  UNL1        0.0000
      4 C          10.8100   10.2685    9.9335 C.3     1  UNL1        0.0000
      5 C          11.5238    7.2920    9.4808 C.3     1  UNL1        0.0000
      6 C          12.4798    9.4388    7.4386 C.3     1  UNL1        0.0000
      7 C          12.7363    7.9867   12.7852 C.3     1  UNL1        0.0000
      8 C          13.2533   11.0419   12.6329 C.3     1  UNL1        0.0000
      9 C          15.6295    9.0841   11.8668 C.3     1  UNL1        0.0000
     10 H          10.4829    9.9803   10.9268 H       1  UNL1        0.0000
     11 H           9.9413   10.2458    9.2836 H       1  UNL1        0.0000
     12 H          11.1581   11.2952    9.9879 H       1  UNL1        0.0000
     13 H          10.7546    7.0824    8.7439 H       1  UNL1        0.0000
     14 H          11.0861    7.1320   10.4602 H       1  UNL1        0.0000
     15 H          12.3158    6.5617    9.3500 H       1  UNL1        0.0000
     16 H          13.5129    9.2105    7.1851 H       1  UNL1        0.0000
     17 H          12.2863   10.4756    7.1793 H       1  UNL1        0.0000
     18 H          11.8352    8.8314    6.8111 H       1  UNL1        0.0000
     19 H          12.9690    7.9631   13.8442 H       1  UNL1        0.0000
     20 H          12.9379    7.0016   12.3792 H       1  UNL1        0.0000
     21 H          11.6739    8.1784   12.6867 H       1  UNL1        0.0000
     22 H          12.1955   11.2338   12.4915 H       1  UNL1        0.0000
     23 H          13.8048   11.8484   12.1581 H       1  UNL1        0.0000
     24 H          13.4545   11.0805   13.6985 H       1  UNL1        0.0000
     25 H          15.9604    8.0932   12.1778 H       1  UNL1        0.0000
     26 H          16.2216    9.8286   12.4068 H       1  UNL1        0.0000
@<TRIPOS>BOND
     1    18     6    1
     2    17     6    1
     3    16     6    1
     4     6     1    1
     5    13     5    1
     6    11     4    1
     7     1     5    1
     8     1     4    1
     9     1     3    1
    10    15     5    1
    11     5    14    1
    12     4    12    1
    13     4    10    1
    14     3     2    1
    15     9     2    1
    16     9    25    1
    17     9    26    1
    18     2     8    1
    19     2     7    1
    20    23     8    1
    21    20     7    1
    22    22     8    1
    23     8    24    1
    24    21     7    1
    25     7    19    1
