@<TRIPOS>MOLECULE
3,11
 39 41 0 0 0
SMALL
GASTEIGER

@<TRIPOS>ATOM
      1 P           4.6979    1.6342   16.6801 P.3     1  UNL1        0.0087
      2 C           3.4734    2.9319   17.0961 C.ar    1  UNL1       -0.0132
      3 C           4.6076    1.8548   14.8490 C.2     1  UNL1        0.0934
      4 C           3.6980    0.1419   17.0891 C.ar    1  UNL1       -0.0132
      5 C           2.7196    2.8186   18.2633 C.ar    1  UNL1       -0.0535
      6 H           2.7905    1.9180   18.8585 H       1  UNL1        0.0624
      7 C           3.6386   -2.0912   17.9957 C.ar    1  UNL1       -0.0611
      8 H           4.1460   -2.9235   18.4622 H       1  UNL1        0.0618
      9 C           4.3405   -0.9420   17.6868 C.ar    1  UNL1       -0.0535
     10 H           5.3982   -0.8750   17.9061 H       1  UNL1        0.0624
     11 N           4.9088    0.9878   13.9616 N.2     1  UNL1       -0.2761
     12 C           6.7574   -0.6166   14.2050 C.ar    1  UNL1       -0.0262
     13 C           5.2682   -0.4078   14.2202 C.3     1  UNL1        0.0655
     14 H           4.8017   -1.0186   13.4404 H       1  UNL1        0.0558
     15 H           4.8753   -0.7174   15.1995 H       1  UNL1        0.0558
     16 C           2.2841   -2.1739   17.7124 C.ar    1  UNL1       -0.0617
     17 H           1.7342   -3.0717   17.9543 H       1  UNL1        0.0618
     18 C           7.3628   -1.4136   13.2404 C.ar    1  UNL1       -0.0568
     19 H           6.7555   -1.9014   12.4927 H       1  UNL1        0.0621
     20 C           9.5234   -0.9638   14.1833 C.ar    1  UNL1       -0.0617
     21 H          10.5951   -1.0972   14.1735 H       1  UNL1        0.0618
     22 C           2.3362    0.0531   16.8130 C.ar    1  UNL1       -0.0535
     23 H           1.8285    0.8926   16.3634 H       1  UNL1        0.0624
     24 C           3.4095    4.1151   16.3630 C.ar    1  UNL1       -0.0535
     25 H           4.0222    4.2238   15.4668 H       1  UNL1        0.0624
     26 C           1.8765    3.8381   18.6607 C.ar    1  UNL1       -0.0611
     27 H           1.2867    3.7295   19.5596 H       1  UNL1        0.0618
     28 C           1.6381   -1.0993   17.1227 C.ar    1  UNL1       -0.0611
     29 H           0.5817   -1.1585   16.9023 H       1  UNL1        0.0618
     30 C           7.5560   -0.0066   15.1663 C.ar    1  UNL1       -0.0568
     31 H           7.0953    0.5989   15.9347 H       1  UNL1        0.0621
     32 C           8.7356   -1.5893   13.2323 C.ar    1  UNL1       -0.0614
     33 H           9.1918   -2.2143   12.4782 H       1  UNL1        0.0618
     34 C           1.7949    5.0012   17.9118 C.ar    1  UNL1       -0.0617
     35 H           1.1388    5.8010   18.2228 H       1  UNL1        0.0618
     36 C           8.9283   -0.1719   15.1513 C.ar    1  UNL1       -0.0614
     37 H           9.5348    0.3141   15.9013 H       1  UNL1        0.0618
     38 C           2.5687    5.1368   16.7712 C.ar    1  UNL1       -0.0611
     39 H           2.5150    6.0528   16.1995 H       1  UNL1        0.0618
@<TRIPOS>BOND
     1    33    32    1
     2    19    18    1
     3    32    18   ar
     4    32    20   ar
     5    18    12   ar
     6    14    13    1
     7    11    13    1
     8    11     3    2
     9    21    20    1
    10    20    36   ar
    11    12    13    1
    12    12    30   ar
    13    13    15    1
    14     3     1    1
    15    36    30   ar
    16    36    37    1
    17    30    31    1
    18    25    24    1
    19    39    38    1
    20    24    38   ar
    21    24     2   ar
    22    23    22    1
    23     1     4    1
    24     1     2    1
    25    38    34   ar
    26    22     4   ar
    27    22    28   ar
    28    29    28    1
    29     4     9   ar
    30     2     5   ar
    31    28    16   ar
    32     9    10    1
    33     9     7   ar
    34    16    17    1
    35    16     7   ar
    36    34    35    1
    37    34    26   ar
    38     7     8    1
    39     5    26   ar
    40     5     6    1
    41    26    27    1
