@<TRIPOS>MOLECULE
1,2
 6 5 0 0 0
SMALL
GASTEIGER

@<TRIPOS>ATOM
      1 N          -1.4945    1.7041    4.9581 N.3     1  UNL1       -0.1324
      2 C          -1.3838    0.4977    4.8136 C.3     1  UNL1        0.0975
      3 C          -2.0679   -0.7213    5.2885 C.3     1  UNL1       -0.0400
      4 H          -3.1232   -0.5164    5.4728 H       1  UNL1        0.0250
      5 H          -1.9693   -1.5312    4.5650 H       1  UNL1        0.0250
      6 H          -1.5950   -1.0362    6.2203 H       1  UNL1        0.0250
@<TRIPOS>BOND
     1     5     3    1
     2     2     1    1
     3     2     3    1
     4     3     4    1
     5     3     6    1
