@<TRIPOS>MOLECULE
1,6
 19 18 0 0 0
SMALL
GASTEIGER

@<TRIPOS>ATOM
      1 N          23.6742    9.4535   18.6995 N.3     1  UNL1       -0.2244
      2 C          22.2787   11.0449   17.3701 C.3     1  UNL1       -0.0416
      3 H          23.0888   11.3423   16.7003 H       1  UNL1        0.0249
      4 H          22.1093   11.8516   18.0854 H       1  UNL1        0.0249
      5 H          21.3678   10.9227   16.7836 H       1  UNL1        0.0249
      6 C          22.5932    9.7795   18.1220 C.3     1  UNL1        0.0766
      7 C          24.9717   10.1360   18.8048 C.3     1  UNL1        0.0289
      8 C          25.7462    9.9153   17.4983 C.3     1  UNL1       -0.0458
      9 H          25.8773    8.8491   17.3219 H       1  UNL1        0.0248
     10 H          26.7258   10.3845   17.5610 H       1  UNL1        0.0248
     11 H          25.2115   10.3380   16.6503 H       1  UNL1        0.0248
     12 C          24.8328   11.6369   19.1004 C.3     1  UNL1       -0.0458
     13 H          24.5361   12.1996   18.2207 H       1  UNL1        0.0248
     14 H          25.7901   12.0280   19.4394 H       1  UNL1        0.0248
     15 H          24.0998   11.7981   19.8880 H       1  UNL1        0.0248
     16 C          25.7262    9.4763   19.9646 C.3     1  UNL1       -0.0458
     17 H          25.8380    8.4122   19.7759 H       1  UNL1        0.0248
     18 H          25.1694    9.6079   20.8901 H       1  UNL1        0.0248
     19 H          26.7133    9.9190   20.0804 H       1  UNL1        0.0248
@<TRIPOS>BOND
     1    11     8    1
     2     3     2    1
     3     5     2    1
     4     9     8    1
     5     2     4    1
     6     2     6    1
     7     8    10    1
     8     8     7    1
     9     6     1    1
    10    13    12    1
    11     1     7    1
    12     7    12    1
    13     7    16    1
    14    12    14    1
    15    12    15    1
    16    17    16    1
    17    16    19    1
    18    16    18    1
