@<TRIPOS>MOLECULE
1,6
 19 18 0 0 0
SMALL
GASTEIGER

@<TRIPOS>ATOM
      1 N           6.6789    9.3649   17.9750 N.3     1  UNL1       -0.2244
      2 C           4.7717    7.8938   18.5742 C.3     1  UNL1       -0.0416
      3 H           4.5548    7.6515   17.5344 H       1  UNL1        0.0249
      4 H           4.0082    8.5838   18.9343 H       1  UNL1        0.0249
      5 H           4.6954    6.9817   19.1660 H       1  UNL1        0.0249
      6 C           6.1356    8.5252   18.7959 C.3     1  UNL1        0.0766
      7 C           6.1811    9.9006   16.6837 C.3     1  UNL1        0.0289
      8 C           7.1090   11.0856   16.3707 C.3     1  UNL1       -0.0458
      9 H           6.8176   11.9550   16.9546 H       1  UNL1        0.0248
     10 H           7.0631   11.3469   15.3153 H       1  UNL1        0.0248
     11 H           8.1331   10.8239   16.6373 H       1  UNL1        0.0248
     12 C           4.7344   10.4130   16.7397 C.3     1  UNL1       -0.0458
     13 H           4.5553   10.9408   17.6741 H       1  UNL1        0.0248
     14 H           4.0101    9.6094   16.6511 H       1  UNL1        0.0248
     15 H           4.5679   11.1073   15.9179 H       1  UNL1        0.0248
     16 C           6.3287    8.8441   15.5803 C.3     1  UNL1       -0.0458
     17 H           5.7448    7.9547   15.7996 H       1  UNL1        0.0248
     18 H           7.3693    8.5478   15.4843 H       1  UNL1        0.0248
     19 H           5.9880    9.2529   14.6307 H       1  UNL1        0.0248
@<TRIPOS>BOND
     1    19    16    1
     2    10     8    1
     3    18    16    1
     4    16    17    1
     5    16     7    1
     6    15    12    1
     7     8    11    1
     8     8     7    1
     9     8     9    1
    10    14    12    1
    11     7    12    1
    12     7     1    1
    13    12    13    1
    14     3     2    1
    15     1     6    1
    16     2     6    1
    17     2     4    1
    18     2     5    1
