@<TRIPOS>MOLECULE
1,6
 19 18 0 0 0
SMALL
GASTEIGER

@<TRIPOS>ATOM
      1 N           8.4065    6.5121   18.6760 N.2     1  UNL1       -0.2810
      2 C           9.1942    6.0542   20.9878 C.3     1  UNL1       -0.0210
      3 H           9.7857    5.2019   20.6571 H       1  UNL1        0.0293
      4 H           8.3103    5.6789   21.5039 H       1  UNL1        0.0293
      5 H           9.7849    6.6229   21.7027 H       1  UNL1        0.0293
      6 C           8.7424    6.9501   19.8313 C.2     1  UNL1        0.0539
      7 C           8.3651    5.1295   18.1746 C.3     1  UNL1        0.0538
      8 C           7.6329    4.1461   19.0999 C.3     1  UNL1       -0.0403
      9 H           6.7502    4.6246   19.5192 H       1  UNL1        0.0253
     10 H           8.2618    3.7960   19.9120 H       1  UNL1        0.0253
     11 H           7.3134    3.2780   18.5266 H       1  UNL1        0.0253
     12 C           9.7780    4.6272   17.8492 C.3     1  UNL1       -0.0403
     13 H          10.2669    5.3190   17.1679 H       1  UNL1        0.0253
     14 H           9.7212    3.6489   17.3763 H       1  UNL1        0.0253
     15 H          10.3904    4.5409   18.7426 H       1  UNL1        0.0253
     16 C           7.5694    5.2286   16.8626 C.3     1  UNL1       -0.0403
     17 H           6.5628    5.5797   17.0741 H       1  UNL1        0.0253
     18 H           7.5114    4.2612   16.3691 H       1  UNL1        0.0253
     19 H           8.0450    5.9382   16.1913 H       1  UNL1        0.0253
@<TRIPOS>BOND
     1    19    16    1
     2    18    16    1
     3    16    17    1
     4    16     7    1
     5    13    12    1
     6    14    12    1
     7    12     7    1
     8    12    15    1
     9     7     1    1
    10     7     8    1
    11    11     8    1
    12     1     6    2
    13     8     9    1
    14     8    10    1
    15     6     2    1
    16     3     2    1
    17     2     4    1
    18     2     5    1
