@<TRIPOS>MOLECULE
1,12
 42 42 0 0 0
SMALL
GASTEIGER

@<TRIPOS>ATOM
      1 N           6.9445    5.0586    5.5109 N.3     1  UNL1       -0.2223
      2 N           4.1665    5.9439    3.5970 N.2     1  UNL1       -0.2479
      3 C           6.1372    7.4456    5.2181 C.3     1  UNL1       -0.0399
      4 H           5.3125    7.9439    4.7115 H       1  UNL1        0.0252
      5 H           7.0391    7.5587    4.6190 H       1  UNL1        0.0252
      6 H           6.2791    7.9293    6.1803 H       1  UNL1        0.0252
      7 C           4.6826    5.8118    6.4325 C.3     1  UNL1       -0.0399
      8 H           3.8118    6.3648    6.0845 H       1  UNL1        0.0252
      9 H           4.9976    6.2256    7.3884 H       1  UNL1        0.0252
     10 H           4.3965    4.7699    6.5659 H       1  UNL1        0.0252
     11 C           5.7853    5.9483    5.3665 C.3     1  UNL1        0.0751
     12 C           5.2571    5.4605    4.0076 C.2     1  UNL1        0.0860
     13 C           3.3814    5.6970    2.4969 C.ar    1  UNL1        0.0701
     14 C           7.8112    5.0239    6.6788 C.3     1  UNL1        0.0292
     15 C           9.1173    4.3553    6.2107 C.3     1  UNL1       -0.0458
     16 H           9.7223    4.0494    7.0625 H       1  UNL1        0.0248
     17 H           9.6939    5.0530    5.6072 H       1  UNL1        0.0248
     18 H           8.8702    3.4770    5.6072 H       1  UNL1        0.0248
     19 C           8.1784    6.4016    7.2626 C.3     1  UNL1       -0.0458
     20 H           8.9738    6.2753    7.9948 H       1  UNL1        0.0248
     21 H           7.3304    6.8567    7.7660 H       1  UNL1        0.0248
     22 H           8.5358    7.0700    6.4839 H       1  UNL1        0.0248
     23 C           7.2370    4.1709    7.8354 C.3     1  UNL1       -0.0458
     24 H           7.9149    4.2106    8.6860 H       1  UNL1        0.0248
     25 H           7.1311    3.1341    7.5282 H       1  UNL1        0.0248
     26 H           6.2683    4.5398    8.1566 H       1  UNL1        0.0248
     27 C           2.9627    6.7863    1.7138 C.ar    1  UNL1       -0.0248
     28 C           3.4429    8.1763    2.0117 C.3     1  UNL1       -0.0377
     29 H           3.7746    8.2428    3.0457 H       1  UNL1        0.0278
     30 H           2.6422    8.8952    1.8474 H       1  UNL1        0.0278
     31 H           4.2734    8.4524    1.3607 H       1  UNL1        0.0278
     32 C           2.0970    6.5718    0.6530 C.ar    1  UNL1       -0.0568
     33 H           1.7955    7.4138    0.0455 H       1  UNL1        0.0621
     34 C           1.6081    5.3101    0.3735 C.ar    1  UNL1       -0.0611
     35 H           0.9365    5.1558   -0.4575 H       1  UNL1        0.0618
     36 C           1.9689    4.2479    1.1864 C.ar    1  UNL1       -0.0568
     37 H           1.5650    3.2638    0.9919 H       1  UNL1        0.0621
     38 C           2.8445    4.4205    2.2421 C.ar    1  UNL1       -0.0248
     39 C           3.1896    3.2799    3.1519 C.3     1  UNL1       -0.0377
     40 H           2.8163    3.4947    4.1555 H       1  UNL1        0.0278
     41 H           4.2748    3.1492    3.2116 H       1  UNL1        0.0278
     42 H           2.7273    2.3594    2.8006 H       1  UNL1        0.0278
@<TRIPOS>BOND
     1    35    34    1
     2    33    32    1
     3    34    32   ar
     4    34    36   ar
     5    32    27   ar
     6    37    36    1
     7    36    38   ar
     8    31    28    1
     9    27    28    1
    10    27    13   ar
    11    30    28    1
    12    28    29    1
    13    38    13   ar
    14    38    39    1
    15    13     2    1
    16    42    39    1
    17    39    41    1
    18    39    40    1
    19     2    12    2
    20    12    11    1
    21     5     3    1
    22     4     3    1
    23     3    11    1
    24     3     6    1
    25    11     1    1
    26    11     7    1
    27     1    14    1
    28    18    15    1
    29    17    15    1
    30     8     7    1
    31    15    14    1
    32    15    16    1
    33     7    10    1
    34     7     9    1
    35    22    19    1
    36    14    19    1
    37    14    23    1
    38    19    21    1
    39    19    20    1
    40    25    23    1
    41    23    26    1
    42    23    24    1
