@<TRIPOS>MOLECULE
2,3
 88 92 0 0 0
SMALL
GASTEIGER

@<TRIPOS>ATOM
      1 SI         -1.4678    3.9592    7.4916 Si      1  UNL1        0.0000
      2 N          -1.7726    2.9792    8.8892 N.3     1  UNL1        0.0000
      3 C          -0.4323    5.2204    8.4693 C.3     1  UNL1        0.0000
      4 C          -0.5478    6.6567    8.4283 C.ar    1  UNL1        0.0000
      5 C          -1.6623    7.4774    8.3019 C.ar    1  UNL1        0.0000
      6 C          -1.5509    8.8616    8.3480 C.ar    1  UNL1        0.0000
      7 C          -2.8347    9.6702    8.2502 C.3     1  UNL1        0.0000
      8 C          -2.5909   11.1399    8.6117 C.3     1  UNL1        0.0000
      9 C          -1.3273   11.6822    7.9689 C.3     1  UNL1        0.0000
     10 C          -0.0719   10.9603    8.4704 C.3     1  UNL1        0.0000
     11 C          -0.2810    9.4554    8.4708 C.ar    1  UNL1        0.0000
     12 C           0.8379    8.6427    8.6167 C.ar    1  UNL1        0.0000
     13 C           0.7255    7.2641    8.6063 C.ar    1  UNL1        0.0000
     14 C           1.6871    6.2053    8.7720 C.ar    1  UNL1        0.0000
     15 C           3.0479    6.1959    9.0226 C.ar    1  UNL1        0.0000
     16 C           3.7378    4.9994    9.1933 C.ar    1  UNL1        0.0000
     17 C           5.2230    5.0820    9.5051 C.3     1  UNL1        0.0000
     18 C           5.7653    3.7212    9.9564 C.3     1  UNL1        0.0000
     19 C           5.2635    2.5900    9.0773 C.3     1  UNL1        0.0000
     20 C           3.7418    2.4282    9.1645 C.3     1  UNL1        0.0000
     21 C           3.0487    3.7781    9.0656 C.ar    1  UNL1        0.0000
     22 C           1.6761    3.7809    8.8406 C.ar    1  UNL1        0.0000
     23 C           0.9779    4.9764    8.6879 C.ar    1  UNL1        0.0000
     24 C          -3.8926    9.1321    9.2276 C.3     1  UNL1        0.0000
     25 C          -3.3829    9.5600    6.8205 C.3     1  UNL1        0.0000
     26 C           1.0815   11.3509    7.5329 C.3     1  UNL1        0.0000
     27 C           0.2747   11.4221    9.8939 C.3     1  UNL1        0.0000
     28 C           5.9733    5.5628    8.2549 C.3     1  UNL1        0.0000
     29 C           5.4807    6.0754   10.6501 C.3     1  UNL1        0.0000
     30 C           3.3517    1.7554   10.4881 C.3     1  UNL1        0.0000
     31 C           3.3129    1.5142    8.0052 C.3     1  UNL1        0.0000
     32 C          -3.0412    4.7050    6.6717 C.3     1  UNL1        0.0000
     33 C          -0.4509    3.2032    6.0381 C.3     1  UNL1        0.0000
     34 C          -2.3112    1.6371    8.9146 C.3     1  UNL1        0.0000
     35 C          -3.2704    1.3830    7.7421 C.3     1  UNL1        0.0000
     36 C          -3.0968    1.4053   10.2196 C.3     1  UNL1        0.0000
     37 C          -1.1487    0.6285    8.8316 C.3     1  UNL1        0.0000
     38 H          -2.6315    7.0146    8.1839 H       1  UNL1        0.0000
     39 H          -3.4510   11.7348    8.2943 H       1  UNL1        0.0000
     40 H          -2.5143   11.2332    9.6971 H       1  UNL1        0.0000
     41 H          -1.3937   11.5648    6.8857 H       1  UNL1        0.0000
     42 H          -1.2358   12.7512    8.1779 H       1  UNL1        0.0000
     43 H           1.8148    9.0887    8.7372 H       1  UNL1        0.0000
     44 H           3.5775    7.1354    9.0857 H       1  UNL1        0.0000
     45 H           5.4607    3.5396   10.9891 H       1  UNL1        0.0000
     46 H           6.8577    3.7466    9.9383 H       1  UNL1        0.0000
     47 H           5.7428    1.6528    9.3712 H       1  UNL1        0.0000
     48 H           5.5402    2.7879    8.0402 H       1  UNL1        0.0000
     49 H           1.1269    2.8462    8.7630 H       1  UNL1        0.0000
     50 H          -4.7446    9.8095    9.2536 H       1  UNL1        0.0000
     51 H          -3.4814    9.0591   10.2336 H       1  UNL1        0.0000
     52 H          -4.2562    8.1517    8.9332 H       1  UNL1        0.0000
     53 H          -3.5816    8.5211    6.5688 H       1  UNL1        0.0000
     54 H          -2.6662    9.9464    6.1002 H       1  UNL1        0.0000
     55 H          -4.3104   10.1221    6.7245 H       1  UNL1        0.0000
     56 H           0.9527   10.8840    6.5588 H       1  UNL1        0.0000
     57 H           2.0471   11.0518    7.9306 H       1  UNL1        0.0000
     58 H           1.0969   12.4314    7.3999 H       1  UNL1        0.0000
     59 H           0.4451   12.4972    9.9132 H       1  UNL1        0.0000
     60 H           1.1768   10.9255   10.2447 H       1  UNL1        0.0000
     61 H          -0.5311   11.1885   10.5864 H       1  UNL1        0.0000
     62 H           5.8297    4.8725    7.4276 H       1  UNL1        0.0000
     63 H           7.0395    5.6449    8.4591 H       1  UNL1        0.0000
     64 H           5.6060    6.5371    7.9419 H       1  UNL1        0.0000
     65 H           5.2951    7.1014   10.3463 H       1  UNL1        0.0000
     66 H           6.5193    6.0055   10.9692 H       1  UNL1        0.0000
     67 H           4.8414    5.8495   11.5020 H       1  UNL1        0.0000
     68 H           2.2745    1.6098   10.5335 H       1  UNL1        0.0000
     69 H           3.6462    2.3661   11.3389 H       1  UNL1        0.0000
     70 H           3.8356    0.7842   10.5762 H       1  UNL1        0.0000
     71 H           2.2881    1.1715    8.1180 H       1  UNL1        0.0000
     72 H           3.9561    0.6363    7.9735 H       1  UNL1        0.0000
     73 H           3.3998    2.0394    7.0561 H       1  UNL1        0.0000
     74 H          -3.4910    4.0011    5.9793 H       1  UNL1        0.0000
     75 H          -2.8029    5.6032    6.1116 H       1  UNL1        0.0000
     76 H          -3.7895    4.9582    7.4183 H       1  UNL1        0.0000
     77 H          -0.9637    2.3674    5.5716 H       1  UNL1        0.0000
     78 H           0.5226    2.8544    6.3673 H       1  UNL1        0.0000
     79 H          -0.2832    3.9501    5.2680 H       1  UNL1        0.0000
     80 H          -3.7249    0.3990    7.8337 H       1  UNL1        0.0000
     81 H          -2.7388    1.4346    6.7973 H       1  UNL1        0.0000
     82 H          -4.0543    2.1353    7.7405 H       1  UNL1        0.0000
     83 H          -3.3584    0.3535   10.3202 H       1  UNL1        0.0000
     84 H          -4.0159    1.9887   10.2029 H       1  UNL1        0.0000
     85 H          -2.5012    1.7145   11.0808 H       1  UNL1        0.0000
     86 H          -1.5156   -0.3947    8.8749 H       1  UNL1        0.0000
     87 H          -0.4595    0.7951    9.6591 H       1  UNL1        0.0000
     88 H          -0.6129    0.7701    7.8955 H       1  UNL1        0.0000
@<TRIPOS>BOND
     1    79    33    1
     2    77    33    1
     3    74    32    1
     4    33    78    1
     5    33     1    1
     6    54    25    1
     7    75    32    1
     8    56    26    1
     9    53    25    1
    10    32    76    1
    11    32     1    1
    12    55    25    1
    13    81    35    1
    14    25     7    1
    15    41     9    1
    16    73    31    1
    17    58    26    1
    18    62    28    1
    19     1     3    1
    20     1     2    1
    21    26    57    1
    22    26    10    1
    23    82    35    1
    24    35    80    1
    25    35    34    1
    26    88    37    1
    27    64    28    1
    28     9    42    1
    29     9    10    1
    30     9     8    1
    31    72    31    1
    32    31    71    1
    33    31    20    1
    34    48    19    1
    35    38     5    1
    36     7     6    1
    37     7     8    1
    38     7    24    1
    39    28    63    1
    40    28    17    1
    41    39     8    1
    42     5     6   ar
    43     5     4   ar
    44     6    11   ar
    45     4     3    1
    46     4    13   ar
    47     3    23    1
    48    10    11    1
    49    10    27    1
    50    11    12   ar
    51    13    12   ar
    52    13    14    1
    53     8    40    1
    54    12    43    1
    55    23    14   ar
    56    23    22   ar
    57    49    22    1
    58    14    15   ar
    59    37    86    1
    60    37    34    1
    61    37    87    1
    62    22    21   ar
    63     2    34    1
    64    34    36    1
    65    52    24    1
    66    15    44    1
    67    15    16   ar
    68    21    20    1
    69    21    16   ar
    70    19    20    1
    71    19    47    1
    72    19    18    1
    73    20    30    1
    74    16    17    1
    75    24    50    1
    76    24    51    1
    77    17    18    1
    78    17    29    1
    79    27    59    1
    80    27    60    1
    81    27    61    1
    82    46    18    1
    83    18    45    1
    84    84    36    1
    85    36    83    1
    86    36    85    1
    87    65    29    1
    88    30    68    1
    89    30    70    1
    90    30    69    1
    91    29    66    1
    92    29    67    1
