@<TRIPOS>MOLECULE
1,8
 23 23 0 0 0
SMALL
GASTEIGER

@<TRIPOS>ATOM
      1 N           5.4192    2.1433    2.5109 N.pl3   1  UNL1       -0.2393
      2 C           7.8471    2.1175    2.6049 C.ar    1  UNL1       -0.0276
      3 C           6.6100    1.9633    3.2434 C.ar    1  UNL1        0.0543
      4 C           5.2043    1.3827    5.2460 C.3     1  UNL1       -0.0379
      5 H           4.4234    1.0972    4.5302 H       1  UNL1        0.0278
      6 H           4.9190    2.3345    5.6980 H       1  UNL1        0.0278
      7 H           5.2547    0.6415    6.0400 H       1  UNL1        0.0278
      8 C           4.5943    3.1411    2.5310 C.3     1  UNL1        0.1003
      9 C           6.5380    1.5163    4.5704 C.ar    1  UNL1       -0.0276
     10 C           9.0045    1.8169    3.3059 C.ar    1  UNL1       -0.0570
     11 H           9.9624    1.9363    2.8205 H       1  UNL1        0.0621
     12 C           7.8968    2.6348    1.1964 C.3     1  UNL1       -0.0379
     13 H           8.7999    2.2942    0.6946 H       1  UNL1        0.0278
     14 H           7.9027    3.7265    1.1970 H       1  UNL1        0.0278
     15 H           7.0172    2.3040    0.6359 H       1  UNL1        0.0278
     16 C           4.9566    4.3493    3.3788 C.3     1  UNL1       -0.0376
     17 H           4.7966    5.2684    2.8148 H       1  UNL1        0.0252
     18 H           5.9921    4.3137    3.7331 H       1  UNL1        0.0252
     19 H           4.2897    4.3796    4.2422 H       1  UNL1        0.0252
     20 C           8.9433    1.3668    4.6131 C.ar    1  UNL1       -0.0611
     21 H           9.8520    1.1309    5.1460 H       1  UNL1        0.0618
     22 C           7.7168    1.2204    5.2375 C.ar    1  UNL1       -0.0570
     23 H           7.6710    0.8728    6.2596 H       1  UNL1        0.0621
@<TRIPOS>BOND
     1    15    12    1
     2    13    12    1
     3    12    14    1
     4    12     2    1
     5     1     8    1
     6     1     3    1
     7     8    16    1
     8     2     3   ar
     9     2    10   ar
    10    17    16    1
    11    11    10    1
    12     3     9   ar
    13    10    20   ar
    14    16    18    1
    15    16    19    1
    16     5     4    1
    17     9    22   ar
    18     9     4    1
    19    20    21    1
    20    20    22   ar
    21    22    23    1
    22     4     6    1
    23     4     7    1
