@<TRIPOS>MOLECULE
3,4
 40 42 0 0 0
SMALL
GASTEIGER

@<TRIPOS>ATOM
      1 N          -1.5920    7.2998    5.0208 N.pl3   1  UNL1       -0.2765
      2 N          -0.8530    8.4637    6.6619 N.pl3   1  UNL1       -0.3048
      3 N           1.9634    8.1191    6.7303 N.pl3   1  UNL1       -0.2435
      4 C          -0.5141    7.4669    5.8178 C.3     1  UNL1        0.1913
      5 C          -2.5728    8.2041    5.3482 C.2     1  UNL1        0.0128
      6 H          -3.5099    8.2363    4.8310 H       1  UNL1        0.0797
      7 C          -2.1080    8.9361    6.3828 C.2     1  UNL1        0.0083
      8 H          -2.5618    9.7339    6.9339 H       1  UNL1        0.0793
      9 C          -0.0977    8.8289    7.8268 C.3     1  UNL1        0.0430
     10 H          -0.2114    8.0324    8.5784 H       1  UNL1        0.0490
     11 H          -0.5081    9.7535    8.2378 H       1  UNL1        0.0490
     12 C           1.3736    8.9908    7.5651 C.3     1  UNL1        0.1147
     13 C           2.0844    9.9625    8.2489 C.2     1  UNL1       -0.0552
     14 H           1.5600   10.6419    8.9030 H       1  UNL1        0.0595
     15 C           3.4602   10.0455    8.1042 C.2     1  UNL1       -0.0623
     16 H           4.0317   10.7898    8.6342 H       1  UNL1        0.0616
     17 C           4.0730    9.1287    7.2601 C.2     1  UNL1       -0.0466
     18 H           5.1418    9.1306    7.1170 H       1  UNL1        0.0630
     19 C           3.2947    8.2078    6.5960 C.2     1  UNL1        0.0125
     20 H           3.7388    7.4985    5.9158 H       1  UNL1        0.0797
     21 C          -1.8468    6.2586    4.0879 C.ar    1  UNL1        0.0414
     22 C          -2.3165    5.0333    4.5624 C.ar    1  UNL1       -0.0286
     23 C          -2.6084    4.0395    3.6385 C.ar    1  UNL1       -0.0541
     24 H          -2.9616    3.0828    3.9945 H       1  UNL1        0.0623
     25 C          -2.4614    4.2486    2.2757 C.ar    1  UNL1       -0.0498
     26 C          -2.0280    5.4920    1.8331 C.ar    1  UNL1       -0.0541
     27 H          -1.9260    5.6709    0.7723 H       1  UNL1        0.0623
     28 C          -1.7242    6.5098    2.7228 C.ar    1  UNL1       -0.0286
     29 C          -2.5129    4.8019    6.0274 C.3     1  UNL1       -0.0379
     30 H          -2.9731    3.8339    6.2031 H       1  UNL1        0.0278
     31 H          -3.1495    5.5743    6.4581 H       1  UNL1        0.0278
     32 H          -1.5619    4.8277    6.5574 H       1  UNL1        0.0278
     33 C          -1.2666    7.8515    2.2573 C.3     1  UNL1       -0.0379
     34 H          -0.3177    8.0875    2.7332 H       1  UNL1        0.0278
     35 H          -1.9856    8.6232    2.5315 H       1  UNL1        0.0278
     36 H          -1.1402    7.8653    1.1789 H       1  UNL1        0.0278
     37 C          -2.7826    3.1688    1.2876 C.3     1  UNL1       -0.0397
     38 H          -2.9749    2.2249    1.7905 H       1  UNL1        0.0278
     39 H          -1.9580    3.0329    0.5900 H       1  UNL1        0.0278
     40 H          -3.6660    3.4386    0.7093 H       1  UNL1        0.0278
@<TRIPOS>BOND
     1    39    37    1
     2    40    37    1
     3    27    26    1
     4    36    33    1
     5    37    38    1
     6    37    25    1
     7    26    25   ar
     8    26    28   ar
     9    33    35    1
    10    33    28    1
    11    33    34    1
    12    25    23   ar
    13    28    21   ar
    14    23    24    1
    15    23    22   ar
    16    21    22   ar
    17    21     1    1
    18    22    29    1
    19     6     5    1
    20     1     5    1
    21     1     4    1
    22     5     7    2
    23     4     2    1
    24    20    19    1
    25    29    30    1
    26    29    31    1
    27    29    32    1
    28     7     2    1
    29     7     8    1
    30    19     3    1
    31    19    17    2
    32     2     9    1
    33     3    12    1
    34    18    17    1
    35    17    15    1
    36    12     9    1
    37    12    13    1
    38     9    11    1
    39     9    10    1
    40    15    13    2
    41    15    16    1
    42    13    14    1
