@<TRIPOS>MOLECULE
1,2
 33 34 0 0 0
SMALL
GASTEIGER

@<TRIPOS>ATOM
      1 N          -2.6658   11.1113   10.1466 N.2     1  UNL1       -0.2495
      2 C          -2.8413   12.0755    9.3160 C.2     1  UNL1        0.0677
      3 C          -4.2838   12.3844    8.8763 C.3     1  UNL1        0.0166
      4 H          -4.9914   12.0288    9.6343 H       1  UNL1        0.0377
      5 H          -4.4497   11.8011    7.9620 H       1  UNL1        0.0377
      6 C          -4.5179   13.8303    8.5747 C.ar    1  UNL1       -0.0415
      7 C          -3.8548   14.4312    7.5105 C.ar    1  UNL1       -0.0582
      8 H          -3.1599   13.8354    6.9335 H       1  UNL1        0.0620
      9 C          -4.0809   15.7569    7.1956 C.ar    1  UNL1       -0.0615
     10 H          -3.5781   16.2088    6.3528 H       1  UNL1        0.0618
     11 C          -4.9587   16.5113    7.9573 C.ar    1  UNL1       -0.0617
     12 H          -5.1376   17.5478    7.7125 H       1  UNL1        0.0618
     13 C          -5.6030   15.9299    9.0354 C.ar    1  UNL1       -0.0615
     14 H          -6.2825   16.5149    9.6379 H       1  UNL1        0.0618
     15 C          -5.3865   14.5972    9.3402 C.ar    1  UNL1       -0.0582
     16 H          -5.9019   14.1468   10.1771 H       1  UNL1        0.0620
     17 C          -3.6636   10.3167   10.7419 C.ar    1  UNL1        0.0700
     18 C          -4.1942    9.2049   10.0773 C.ar    1  UNL1       -0.0248
     19 C          -5.0565    8.3557   10.7548 C.ar    1  UNL1       -0.0568
     20 H          -5.4573    7.4963   10.2362 H       1  UNL1        0.0621
     21 C          -5.4134    8.6005   12.0667 C.ar    1  UNL1       -0.0611
     22 H          -6.0867    7.9323   12.5825 H       1  UNL1        0.0618
     23 C          -4.9106    9.7171   12.7109 C.ar    1  UNL1       -0.0568
     24 H          -5.2006    9.9254   13.7310 H       1  UNL1        0.0621
     25 C          -4.0375   10.5794   12.0696 C.ar    1  UNL1       -0.0248
     26 C          -3.8698    8.9407    8.6378 C.3     1  UNL1       -0.0377
     27 H          -4.6712    9.3160    7.9985 H       1  UNL1        0.0278
     28 H          -3.7679    7.8728    8.4578 H       1  UNL1        0.0278
     29 H          -2.9396    9.4333    8.3551 H       1  UNL1        0.0278
     30 C          -3.5151   11.7937   12.7802 C.3     1  UNL1       -0.0377
     31 H          -2.4778   11.6410   13.0785 H       1  UNL1        0.0278
     32 H          -4.1018   11.9919   13.6743 H       1  UNL1        0.0278
     33 H          -3.5558   12.6695   12.1322 H       1  UNL1        0.0278
@<TRIPOS>BOND
     1    10     9    1
     2     8     7    1
     3     9     7   ar
     4     9    11   ar
     5     7     6   ar
     6    12    11    1
     7    11    13   ar
     8     5     3    1
     9    27    26    1
    10    29    26    1
    11    28    26    1
    12     6     3    1
    13     6    15   ar
    14    26    18    1
    15     3     2    1
    16     3     4    1
    17    13    15   ar
    18    13    14    1
    19     2     1    2
    20    15    16    1
    21    18    17   ar
    22    18    19   ar
    23     1    17    1
    24    20    19    1
    25    17    25   ar
    26    19    21   ar
    27    21    22    1
    28    21    23   ar
    29    25    23   ar
    30    25    30    1
    31    33    30    1
    32    23    24    1
    33    30    31    1
    34    30    32    1
