@<TRIPOS>MOLECULE
5,23
 59 61 0 0 0
SMALL
GASTEIGER

@<TRIPOS>ATOM
      1 SI          2.3807    1.4506    4.3935 Si      1  UNL1        0.0000
      2 SI          2.4608    3.7310    5.1519 Si      1  UNL1        0.0000
      3 SI          0.0829    1.0154    3.8478 Si      1  UNL1        0.0000
      4 SI          2.9042   -0.0438    6.2000 Si      1  UNL1        0.0000
      5 C           3.7708    1.0832    3.1080 C.3     1  UNL1        0.0000
      6 C           3.0688    2.4881    1.1747 C.ar    1  UNL1        0.0000
      7 C           1.9845    2.0762    0.3885 C.ar    1  UNL1        0.0000
      8 C           1.3385    2.9957   -0.4289 C.ar    1  UNL1        0.0000
      9 C           1.7455    4.3118   -0.4946 C.ar    1  UNL1        0.0000
     10 C           2.8264    4.7164    0.2679 C.ar    1  UNL1        0.0000
     11 C           3.4921    3.8280    1.0939 C.ar    1  UNL1        0.0000
     12 C           1.4926    0.6626    0.3796 C.3     1  UNL1        0.0000
     13 C           4.6752    4.2827    1.8848 C.3     1  UNL1        0.0000
     14 C           4.1630    4.1547    5.9280 C.3     1  UNL1        0.0000
     15 C           1.1960    4.0205    6.5579 C.3     1  UNL1        0.0000
     16 C           2.0085    5.0636    3.8454 C.3     1  UNL1        0.0000
     17 C          -0.9034    1.0421    5.4880 C.3     1  UNL1        0.0000
     18 C          -0.6743    2.4043    2.7668 C.3     1  UNL1        0.0000
     19 C          -0.3737   -0.7060    3.1259 C.3     1  UNL1        0.0000
     20 C           2.0486   -1.7539    6.0162 C.3     1  UNL1        0.0000
     21 C           4.7482   -0.4147    6.5685 C.3     1  UNL1        0.0000
     22 C           2.2316    0.6476    7.8509 C.3     1  UNL1        0.0000
     23 N           3.8457    1.5815    1.9263 N.pl3   1  UNL1        0.0000
     24 H           0.5019    2.6567   -1.0229 H       1  UNL1        0.0000
     25 H           1.2337    5.0131   -1.1354 H       1  UNL1        0.0000
     26 H           3.1647    5.7409    0.2216 H       1  UNL1        0.0000
     27 H           2.0694    0.0573    1.0686 H       1  UNL1        0.0000
     28 H           1.5772    0.2477   -0.6240 H       1  UNL1        0.0000
     29 H           0.4419    0.6319    0.6595 H       1  UNL1        0.0000
     30 H           5.5783    3.8408    1.4564 H       1  UNL1        0.0000
     31 H           4.5786    3.9675    2.9233 H       1  UNL1        0.0000
     32 H           4.7694    5.3652    1.8473 H       1  UNL1        0.0000
     33 H           4.9820    4.0434    5.2252 H       1  UNL1        0.0000
     34 H           4.3716    3.5046    6.7729 H       1  UNL1        0.0000
     35 H           4.1882    5.1778    6.2947 H       1  UNL1        0.0000
     36 H           1.2602    3.2672    7.3337 H       1  UNL1        0.0000
     37 H           0.1786    4.0198    6.1795 H       1  UNL1        0.0000
     38 H           1.3607    4.9855    7.0298 H       1  UNL1        0.0000
     39 H           1.8110    4.6268    2.8721 H       1  UNL1        0.0000
     40 H           2.8003    5.7947    3.7144 H       1  UNL1        0.0000
     41 H           1.1142    5.6046    4.1417 H       1  UNL1        0.0000
     42 H          -0.7526    1.9631    6.0385 H       1  UNL1        0.0000
     43 H          -0.6129    0.2237    6.1383 H       1  UNL1        0.0000
     44 H          -1.9703    0.9456    5.3063 H       1  UNL1        0.0000
     45 H          -0.0281    2.6831    1.9411 H       1  UNL1        0.0000
     46 H          -0.8318    3.2978    3.3636 H       1  UNL1        0.0000
     47 H          -1.6368    2.1201    2.3493 H       1  UNL1        0.0000
     48 H           0.1497   -0.9519    2.2102 H       1  UNL1        0.0000
     49 H          -1.4396   -0.7667    2.9168 H       1  UNL1        0.0000
     50 H          -0.1444   -1.4861    3.8452 H       1  UNL1        0.0000
     51 H           2.2703   -2.2317    5.0680 H       1  UNL1        0.0000
     52 H           0.9702   -1.6494    6.0798 H       1  UNL1        0.0000
     53 H           2.3500   -2.4392    6.8045 H       1  UNL1        0.0000
     54 H           5.2963   -0.5921    5.6500 H       1  UNL1        0.0000
     55 H           4.8668   -1.2908    7.2016 H       1  UNL1        0.0000
     56 H           5.2217    0.4165    7.0828 H       1  UNL1        0.0000
     57 H           1.1704    0.8624    7.7878 H       1  UNL1        0.0000
     58 H           2.7372    1.5639    8.1387 H       1  UNL1        0.0000
     59 H           2.3674   -0.0626    8.6617 H       1  UNL1        0.0000
@<TRIPOS>BOND
     1    25     9    1
     2    24     8    1
     3    28    12    1
     4     9     8   ar
     5     9    10   ar
     6     8     7   ar
     7    26    10    1
     8    10    11   ar
     9    12     7    1
    10    12    29    1
    11    12    27    1
    12     7     6   ar
    13    11     6   ar
    14    11    13    1
    15     6    23    1
    16    30    13    1
    17    32    13    1
    18    13    31    1
    19    23     5    1
    20    45    18    1
    21    48    19    1
    22    47    18    1
    23    18    46    1
    24    18     3    1
    25    39    16    1
    26    49    19    1
    27     5     1    1
    28    19    50    1
    29    19     3    1
    30    40    16    1
    31    16    41    1
    32    16     2    1
    33     3     1    1
    34     3    17    1
    35     1     2    1
    36     1     4    1
    37    51    20    1
    38     2    14    1
    39     2    15    1
    40    33    14    1
    41    44    17    1
    42    17    42    1
    43    17    43    1
    44    54    21    1
    45    14    35    1
    46    14    34    1
    47    20    52    1
    48    20     4    1
    49    20    53    1
    50    37    15    1
    51     4    21    1
    52     4    22    1
    53    15    38    1
    54    15    36    1
    55    21    56    1
    56    21    55    1
    57    57    22    1
    58    22    58    1
    59    22    59    1
    60     1    23    0
    61     1     6    0
