@<TRIPOS>MOLECULE
2,3
 31 30 0 0 0
SMALL
GASTEIGER

@<TRIPOS>ATOM
      1 SI          1.4866   10.3033   -2.7041 Si      1  UNL1        0.0000
      2 N           3.2515    9.3548    0.4625 N.2     1  UNL1        0.0000
      3 C           3.2040    9.1836   -0.7857 C.2     1  UNL1        0.0000
      4 C           3.2611   10.1034   -1.9259 C.3     1  UNL1        0.0000
      5 C           1.4400    9.1544   -4.2260 C.3     1  UNL1        0.0000
      6 C           0.0897    9.8679   -1.5026 C.3     1  UNL1        0.0000
      7 C           1.3972   12.1318   -3.2676 C.3     1  UNL1        0.0000
      8 C           3.4399   10.5578    1.2743 C.3     1  UNL1        0.0000
      9 C           2.2472   11.4987    1.0722 C.3     1  UNL1        0.0000
     10 C           4.7583   11.2582    0.9083 C.3     1  UNL1        0.0000
     11 C           3.5084   10.1406    2.7463 C.3     1  UNL1        0.0000
     12 H           3.8914    9.6717   -2.7047 H       1  UNL1        0.0000
     13 H           3.6668   11.0827   -1.6660 H       1  UNL1        0.0000
     14 H           0.5037    9.2611   -4.7645 H       1  UNL1        0.0000
     15 H           1.5223    8.1181   -3.9135 H       1  UNL1        0.0000
     16 H           2.2437    9.3613   -4.9278 H       1  UNL1        0.0000
     17 H          -0.8558    9.7601   -2.0250 H       1  UNL1        0.0000
     18 H          -0.0502   10.6094   -0.7224 H       1  UNL1        0.0000
     19 H           0.3184    8.9097   -1.0224 H       1  UNL1        0.0000
     20 H           0.4737   12.3114   -3.8069 H       1  UNL1        0.0000
     21 H           2.2165   12.3900   -3.9318 H       1  UNL1        0.0000
     22 H           1.4217   12.8243   -2.4312 H       1  UNL1        0.0000
     23 H           1.3302   10.9802    1.3419 H       1  UNL1        0.0000
     24 H           2.1721   11.8199    0.0365 H       1  UNL1        0.0000
     25 H           2.3567   12.3773    1.7046 H       1  UNL1        0.0000
     26 H           4.7092   11.7444   -0.0621 H       1  UNL1        0.0000
     27 H           5.5768   10.5398    0.8937 H       1  UNL1        0.0000
     28 H           4.9831   12.0181    1.6536 H       1  UNL1        0.0000
     29 H           2.6452    9.5337    2.9994 H       1  UNL1        0.0000
     30 H           3.5258   11.0221    3.3838 H       1  UNL1        0.0000
     31 H           4.4099    9.5623    2.9379 H       1  UNL1        0.0000
@<TRIPOS>BOND
     1    16     5    1
     2    14     5    1
     3     5    15    1
     4     5     1    1
     5    21     7    1
     6    20     7    1
     7     7     1    1
     8     7    22    1
     9    12     4    1
    10     1     4    1
    11     1     6    1
    12    17     6    1
    13     4    13    1
    14     4     3    1
    15     6    19    1
    16     6    18    1
    17     3     2    2
    18    26    10    1
    19    24     9    1
    20     2     8    1
    21    27    10    1
    22    10     8    1
    23    10    28    1
    24     9     8    1
    25     9    23    1
    26     9    25    1
    27     8    11    1
    28    11    31    1
    29    11    29    1
    30    11    30    1
