@<TRIPOS>MOLECULE
8,10
 22 22 0 0 0
SMALL
GASTEIGER

@<TRIPOS>ATOM
      1 S          -0.1229    9.2850    3.9521 S.3     1  UNL1        0.0000
      2 S          -2.3513    8.1332    2.5698 S.3     1  UNL1        0.0000
      3 P          -0.8278    6.5563    4.4558 P.3     1  UNL1        0.0000
      4 SI         -0.5453    5.7863    7.2376 Si      1  UNL1        0.0000
      5 N          -1.2323    5.6494    5.6406 N.3     1  UNL1        0.0000
      6 N           0.1553    7.8304    4.6160 N.3     1  UNL1        0.0000
      7 N          -1.3515    9.2832    2.9833 N.3     1  UNL1        0.0000
      8 N          -2.0153    6.7000    3.3326 N.3     1  UNL1        0.0000
      9 O           1.6544    5.2107    4.1068 O.2     1  UNL1        0.0000
     10 C           0.6328    5.3447    3.5810 C.2     1  UNL1        0.0000
     11 C          -1.2626    4.2877    8.1579 C.3     1  UNL1        0.0000
     12 C          -1.1366    7.4335    7.9997 C.3     1  UNL1        0.0000
     13 C           1.3586    5.7480    7.2186 C.3     1  UNL1        0.0000
     14 H          -0.9512    4.3051    9.1959 H       1  UNL1        0.0000
     15 H          -0.9231    3.3534    7.7240 H       1  UNL1        0.0000
     16 H          -2.3466    4.2876    8.1339 H       1  UNL1        0.0000
     17 H          -0.7920    7.5485    9.0220 H       1  UNL1        0.0000
     18 H          -2.2209    7.4949    8.0049 H       1  UNL1        0.0000
     19 H          -0.7608    8.2742    7.4224 H       1  UNL1        0.0000
     20 H           1.7662    5.8679    8.2176 H       1  UNL1        0.0000
     21 H           1.7504    6.5481    6.5969 H       1  UNL1        0.0000
     22 H           1.7336    4.8098    6.8195 H       1  UNL1        0.0000
@<TRIPOS>BOND
     1     2     7    1
     2     2     8    1
     3     7     1    1
     4     8     3    1
     5    10     9    2
     6    10     3    1
     7     1     6    1
     8     3     6    1
     9     3     5    1
    10     5     4    1
    11    21    13    1
    12    22    13    1
    13    13     4    1
    14    13    20    1
    15     4    12    1
    16     4    11    1
    17    19    12    1
    18    15    11    1
    19    12    18    1
    20    12    17    1
    21    16    11    1
    22    11    14    1
