@<TRIPOS>MOLECULE
1,2
 36 38 0 0 0
SMALL
GASTEIGER

@<TRIPOS>ATOM
      1 N           4.4770    2.8703   10.4197 N.pl3   1  UNL1       -0.2124
      2 C           4.8533    3.8793   11.2297 C.2     1  UNL1        0.0855
      3 C           5.4902    3.8976   12.4174 C.2     1  UNL1        0.0141
      4 C           4.1113    1.5685   10.7102 C.ar    1  UNL1        0.0538
      5 C           3.4879    1.2455   11.9220 C.ar    1  UNL1       -0.0387
      6 C           3.0922   -0.0525   12.1718 C.ar    1  UNL1       -0.0599
      7 C           3.3045   -1.0459   11.2287 C.ar    1  UNL1       -0.0616
      8 C           3.9097   -0.7311   10.0226 C.ar    1  UNL1       -0.0599
      9 C           4.3111    0.5638    9.7589 C.ar    1  UNL1       -0.0387
     10 C           5.8891    2.6461   13.1023 C.ar    1  UNL1       -0.0154
     11 C           6.5213    1.6108   12.4182 C.ar    1  UNL1       -0.0540
     12 C           6.8475    0.4351   13.0677 C.ar    1  UNL1       -0.0612
     13 C           6.5515    0.2729   14.4104 C.ar    1  UNL1       -0.0617
     14 C           5.9350    1.3011   15.1040 C.ar    1  UNL1       -0.0612
     15 C           5.6072    2.4773   14.4571 C.ar    1  UNL1       -0.0540
     16 C           5.8461    5.1592   13.0740 C.ar    1  UNL1       -0.0154
     17 C           6.9747    5.2360   13.8940 C.ar    1  UNL1       -0.0540
     18 C           7.3233    6.4212   14.5115 C.ar    1  UNL1       -0.0612
     19 C           6.5566    7.5603   14.3269 C.ar    1  UNL1       -0.0617
     20 C           5.4364    7.5009   13.5145 C.ar    1  UNL1       -0.0612
     21 C           5.0847    6.3161   12.8969 C.ar    1  UNL1       -0.0540
     22 H           3.3153    2.0235   12.6525 H       1  UNL1        0.0637
     23 H           2.6149   -0.2916   13.1108 H       1  UNL1        0.0618
     24 H           2.9983   -2.0606   11.4335 H       1  UNL1        0.0618
     25 H           4.0731   -1.5018    9.2839 H       1  UNL1        0.0618
     26 H           4.7934    0.8163    8.8246 H       1  UNL1        0.0637
     27 H           6.7660    1.7333   11.3738 H       1  UNL1        0.0624
     28 H           7.3363   -0.3590   12.5220 H       1  UNL1        0.0618
     29 H           6.8037   -0.6479   14.9156 H       1  UNL1        0.0618
     30 H           5.7056    1.1839   16.1536 H       1  UNL1        0.0618
     31 H           5.1208    3.2760   14.9999 H       1  UNL1        0.0624
     32 H           7.5857    4.3565   14.0371 H       1  UNL1        0.0624
     33 H           8.2018    6.4589   15.1397 H       1  UNL1        0.0618
     34 H           6.8291    8.4857   14.8125 H       1  UNL1        0.0618
     35 H           4.8305    8.3836   13.3659 H       1  UNL1        0.0618
     36 H           4.2043    6.2770   12.2703 H       1  UNL1        0.0624
@<TRIPOS>BOND
     1    26     9    1
     2    25     8    1
     3     9     8   ar
     4     9     4   ar
     5     8     7   ar
     6     1     4    1
     7     1     2    1
     8     4     5   ar
     9     7    24    1
    10     7     6   ar
    11     2     3    2
    12    27    11    1
    13     5     6   ar
    14     5    22    1
    15     6    23    1
    16    36    21    1
    17     3    16    1
    18     3    10    1
    19    11    12   ar
    20    11    10   ar
    21    28    12    1
    22    21    16   ar
    23    21    20   ar
    24    12    13   ar
    25    16    17   ar
    26    10    15   ar
    27    35    20    1
    28    20    19   ar
    29    17    32    1
    30    17    18   ar
    31    19    18   ar
    32    19    34    1
    33    13    29    1
    34    13    14   ar
    35    15    31    1
    36    15    14   ar
    37    18    33    1
    38    14    30    1
