@<TRIPOS>MOLECULE
2,30
 31 31 0 0 0
SMALL
GASTEIGER

@<TRIPOS>ATOM
      1 SI          6.6340    6.4642    4.8669 Si      1  UNL1        0.0000
      2 N           4.9543    6.3499    4.4837 N.3     1  UNL1        0.0000
      3 C           4.2005    7.5903    4.6201 C.3     1  UNL1        0.0000
      4 H           4.2837    7.9667    5.6559 H       1  UNL1        0.0000
      5 C           4.7023    8.7031    3.7245 C.ar    1  UNL1        0.0000
      6 C           4.7802    8.5137    2.3510 C.ar    1  UNL1        0.0000
      7 H           4.4856    7.5585    1.9435 H       1  UNL1        0.0000
      8 C           5.2295    9.5266    1.5244 C.ar    1  UNL1        0.0000
      9 H           5.2912    9.3646    0.4577 H       1  UNL1        0.0000
     10 C           5.5976   10.7501    2.0600 C.ar    1  UNL1        0.0000
     11 H           5.9498   11.5420    1.4154 H       1  UNL1        0.0000
     12 C           5.5082   10.9537    3.4257 C.ar    1  UNL1        0.0000
     13 H           5.7890   11.9069    3.8502 H       1  UNL1        0.0000
     14 C           5.0625    9.9358    4.2518 C.ar    1  UNL1        0.0000
     15 H           4.9978   10.1024    5.3185 H       1  UNL1        0.0000
     16 C           7.4606    4.7444    4.7119 C.3     1  UNL1        0.0000
     17 H           6.7741    3.9190    4.8728 H       1  UNL1        0.0000
     18 H           8.2608    4.6554    5.4390 H       1  UNL1        0.0000
     19 H           7.9089    4.6259    3.7307 H       1  UNL1        0.0000
     20 C           7.6949    7.6109    3.7458 C.3     1  UNL1        0.0000
     21 H           7.5118    7.4348    2.6898 H       1  UNL1        0.0000
     22 H           8.7513    7.4374    3.9283 H       1  UNL1        0.0000
     23 H           7.4979    8.6606    3.9343 H       1  UNL1        0.0000
     24 C           6.8813    7.1311    6.6556 C.3     1  UNL1        0.0000
     25 H           6.7013    8.2011    6.6928 H       1  UNL1        0.0000
     26 H           7.8964    6.9653    7.0018 H       1  UNL1        0.0000
     27 H           6.2078    6.6608    7.3665 H       1  UNL1        0.0000
     28 C           2.7517    7.3317    4.2925 C.2     1  UNL1        0.0000
     29 H           2.0933    8.2015    4.3311 H       1  UNL1        0.0000
     30 C           2.3864    6.1083    3.9446 C.2     1  UNL1        0.0000
     31 H           1.3389    5.9383    3.6716 H       1  UNL1        0.0000
@<TRIPOS>BOND
     1     9     8    1
     2    11    10    1
     3     8    10   ar
     4     8     6   ar
     5     7     6    1
     6    10    12   ar
     7     6     5   ar
     8    21    20    1
     9    12    13    1
    10    12    14   ar
    11    31    30    1
    12     5    14   ar
    13     5     3    1
    14    19    16    1
    15    20    22    1
    16    20    23    1
    17    20     1    1
    18    30    28    2
    19    14    15    1
    20    28    29    1
    21    28     3    1
    22     2     3    1
    23     2     1    1
    24     3     4    1
    25    16     1    1
    26    16    17    1
    27    16    18    1
    28     1    24    1
    29    24    25    1
    30    24    26    1
    31    24    27    1
