@<TRIPOS>MOLECULE
1,2
 20 21 0 0 0
SMALL
GASTEIGER

@<TRIPOS>ATOM
      1 N          12.9311   11.2134    5.3401 N.pl3   1  UNL1       -0.2400
      2 C          10.9374   12.5588    4.2422 C.ar    1  UNL1       -0.0119
      3 C           9.8899   13.2687    3.6593 C.ar    1  UNL1       -0.0537
      4 H           9.5729   13.0305    2.6507 H       1  UNL1        0.0624
      5 C           9.2271   14.2807    4.3291 C.ar    1  UNL1       -0.0612
      6 H           8.4176   14.8105    3.8447 H       1  UNL1        0.0618
      7 C           9.5968   14.6214    5.6224 C.ar    1  UNL1       -0.0614
      8 H           9.0810   15.4150    6.1447 H       1  UNL1        0.0618
      9 C          10.6265   13.9430    6.2383 C.ar    1  UNL1       -0.0555
     10 H          10.9069   14.2153    7.2462 H       1  UNL1        0.0621
     11 C          11.2921   12.9171    5.5618 C.ar    1  UNL1       -0.0081
     12 C          12.3742   12.1448    6.1511 C.3     1  UNL1        0.1273
     13 C          12.8414   12.3128    7.4568 C.2     1  UNL1       -0.0520
     14 H          12.3749   13.0387    8.1028 H       1  UNL1        0.0598
     15 C          13.8962   11.5566    7.9210 C.2     1  UNL1       -0.0620
     16 H          14.2586   11.6801    8.9306 H       1  UNL1        0.0616
     17 C          14.4886   10.6459    7.0572 C.2     1  UNL1       -0.0466
     18 H          15.3307   10.0476    7.3644 H       1  UNL1        0.0630
     19 C          13.9722   10.5087    5.7850 C.2     1  UNL1        0.0129
     20 H          14.4063    9.8103    5.0824 H       1  UNL1        0.0798
@<TRIPOS>BOND
     1     4     3    1
     2     3     2   ar
     3     3     5   ar
     4     6     5    1
     5     2    11   ar
     6     5     7   ar
     7    20    19    1
     8     1    19    1
     9     1    12    1
    10    11    12    1
    11    11     9   ar
    12     7     8    1
    13     7     9   ar
    14    19    17    2
    15    12    13    1
    16     9    10    1
    17    17    18    1
    18    17    15    1
    19    13    15    2
    20    13    14    1
    21    15    16    1
