@<TRIPOS>MOLECULE
1,2
 20 21 0 0 0
SMALL
GASTEIGER

@<TRIPOS>ATOM
      1 N          11.1830   11.0807    1.6851 N.pl3   1  UNL1       -0.2400
      2 C          13.2970   12.3062    2.5943 C.ar    1  UNL1       -0.0119
      3 C          14.4147   12.9522    3.1174 C.ar    1  UNL1       -0.0537
      4 H          14.7111   12.7815    4.1438 H       1  UNL1        0.0624
      5 C          15.1706   13.8195    2.3504 C.ar    1  UNL1       -0.0612
      6 H          16.0314   14.3096    2.7840 H       1  UNL1        0.0618
      7 C          14.8347   14.0648    1.0260 C.ar    1  UNL1       -0.0614
      8 H          15.4315   14.7412    0.4314 H       1  UNL1        0.0618
      9 C          13.7377   13.4409    0.4741 C.ar    1  UNL1       -0.0555
     10 H          13.4825   13.6332   -0.5578 H       1  UNL1        0.0621
     11 C          12.9674   12.5685    1.2461 C.ar    1  UNL1       -0.0081
     12 C          11.7823   11.8857    0.7654 C.3     1  UNL1        0.1273
     13 C          11.2441   12.0285   -0.5146 C.2     1  UNL1       -0.0520
     14 H          11.7410   12.6624   -1.2305 H       1  UNL1        0.0598
     15 C          10.0825   11.3721   -0.8615 C.2     1  UNL1       -0.0620
     16 H           9.6601   11.4775   -1.8490 H       1  UNL1        0.0616
     17 C           9.4617   10.5810    0.0988 C.2     1  UNL1       -0.0466
     18 H           8.5414   10.0605   -0.1126 H       1  UNL1        0.0630
     19 C          10.0449   10.4702    1.3420 C.2     1  UNL1        0.0129
     20 H           9.5674    9.8650    2.1028 H       1  UNL1        0.0798
@<TRIPOS>BOND
     1    16    15    1
     2    14    13    1
     3    15    13    2
     4    15    17    1
     5    10     9    1
     6    13    12    1
     7    18    17    1
     8    17    19    2
     9     8     7    1
    10     9     7   ar
    11     9    11   ar
    12    12    11    1
    13    12     1    1
    14     7     5   ar
    15    11     2   ar
    16    19     1    1
    17    19    20    1
    18     5     6    1
    19     5     3   ar
    20     2     3   ar
    21     3     4    1
