@<TRIPOS>MOLECULE
2,3
 30 30 0 0 0
SMALL
GASTEIGER

@<TRIPOS>ATOM
      1 SI          6.3148    1.5031    9.3520 Si      1  UNL1        0.0000
      2 N           6.9915    3.0349    9.7285 N.3     1  UNL1        0.0000
      3 C           7.3845    4.1100    8.9453 C.3     1  UNL1        0.0000
      4 H           8.2530    3.9361    8.2859 H       1  UNL1        0.0000
      5 C           6.4216    5.0141    8.3113 C.ar    1  UNL1        0.0000
      6 C           6.8932    6.1519    7.6458 C.ar    1  UNL1        0.0000
      7 H           7.9602    6.3430    7.6244 H       1  UNL1        0.0000
      8 C           6.0240    7.0333    7.0353 C.ar    1  UNL1        0.0000
      9 H           6.4148    7.9088    6.5347 H       1  UNL1        0.0000
     10 C           4.6517    6.8119    7.0523 C.ar    1  UNL1        0.0000
     11 C           4.1788    5.6739    7.6985 C.ar    1  UNL1        0.0000
     12 H           3.1151    5.4782    7.7105 H       1  UNL1        0.0000
     13 C           5.0413    4.7921    8.3165 C.ar    1  UNL1        0.0000
     14 H           4.6594    3.9060    8.7999 H       1  UNL1        0.0000
     15 C           3.7016    7.7552    6.3779 C.3     1  UNL1        0.0000
     16 H           3.2851    7.2946    5.4813 H       1  UNL1        0.0000
     17 H           4.2058    8.6738    6.0875 H       1  UNL1        0.0000
     18 H           2.8727    8.0039    7.0389 H       1  UNL1        0.0000
     19 C           6.2397    1.2776    7.4558 C.3     1  UNL1        0.0000
     20 H           7.2355    1.2113    7.0282 H       1  UNL1        0.0000
     21 H           5.7362    2.1156    6.9841 H       1  UNL1        0.0000
     22 H           5.7040    0.3726    7.1890 H       1  UNL1        0.0000
     23 C           4.5572    1.2948   10.1037 C.3     1  UNL1        0.0000
     24 H           3.8045    1.8799    9.5839 H       1  UNL1        0.0000
     25 H           4.5436    1.5893   11.1507 H       1  UNL1        0.0000
     26 H           4.2463    0.2563   10.0534 H       1  UNL1        0.0000
     27 C           7.3690    0.1115   10.1464 C.3     1  UNL1        0.0000
     28 H           7.3903    0.2204   11.2287 H       1  UNL1        0.0000
     29 H           8.3938    0.1142    9.7871 H       1  UNL1        0.0000
     30 H           6.9468   -0.8634    9.9260 H       1  UNL1        0.0000
@<TRIPOS>BOND
     1    16    15    1
     2    17    15    1
     3    15    18    1
     4    15    10    1
     5     9     8    1
     6    21    19    1
     7    20    19    1
     8     8    10   ar
     9     8     6   ar
    10    10    11   ar
    11    22    19    1
    12    19     1    1
    13     7     6    1
    14     6     5   ar
    15    11    12    1
    16    11    13   ar
    17     4     3    1
    18     5    13   ar
    19     5     3    1
    20    13    14    1
    21     3     2    1
    22     1     2    1
    23     1    23    1
    24     1    27    1
    25    24    23    1
    26    29    27    1
    27    30    27    1
    28    26    23    1
    29    23    25    1
    30    27    28    1
