@<TRIPOS>MOLECULE
1,2
 15 14 0 0 0
SMALL
GASTEIGER

@<TRIPOS>ATOM
      1 N           7.0146    3.3499    8.0618 N.2     1  UNL1       -0.1515
      2 C           6.3519    3.4769    9.0740 C.2     1  UNL1        0.0923
      3 C           6.7354    3.6702   10.5075 C.3     1  UNL1        0.0080
      4 C           5.5055    3.8160   11.4018 C.3     1  UNL1       -0.0545
      5 C           7.5679    2.4607   10.9543 C.3     1  UNL1       -0.0545
      6 C           7.6145    4.9246   10.5997 C.3     1  UNL1       -0.0545
      7 H           4.9226    4.6840   11.1101 H       1  UNL1        0.0239
      8 H           5.8067    3.9332   12.4414 H       1  UNL1        0.0239
      9 H           4.8733    2.9362   11.3221 H       1  UNL1        0.0239
     10 H           6.9599    1.5597   10.9711 H       1  UNL1        0.0239
     11 H           7.9592    2.6283   11.9564 H       1  UNL1        0.0239
     12 H           8.4000    2.3087   10.2708 H       1  UNL1        0.0239
     13 H           8.4825    4.8163    9.9541 H       1  UNL1        0.0239
     14 H           7.9501    5.0722   11.6249 H       1  UNL1        0.0239
     15 H           7.0634    5.8074   10.2864 H       1  UNL1        0.0239
@<TRIPOS>BOND
     1     1     2    2
     2     2     3    1
     3    13     6    1
     4    12     5    1
     5    15     6    1
     6     3     6    1
     7     3     5    1
     8     3     4    1
     9     6    14    1
    10     5    10    1
    11     5    11    1
    12     7     4    1
    13     9     4    1
    14     4     8    1
