@<TRIPOS>MOLECULE
2,3
 29 28 0 0 0
SMALL
GASTEIGER

@<TRIPOS>ATOM
      1 P           3.5907   10.0451   12.8359 P.3     1  UNL1        0.0338
      2 N           4.3831    8.6112   12.3777 N.3     1  UNL1       -0.2030
      3 C           4.1933   10.9255   11.5314 C.3     1  UNL1        0.0401
      4 C           4.0298   12.3649   11.1565 C.3     1  UNL1       -0.0248
      5 C           2.8507   13.0338   11.8695 C.3     1  UNL1       -0.0591
      6 H           2.7537   14.0742   11.5627 H       1  UNL1        0.0235
      7 H           2.9979   12.9970   12.9465 H       1  UNL1        0.0235
      8 H           1.9247   12.5117   11.6368 H       1  UNL1        0.0235
      9 C           3.8271   12.4371    9.6327 C.3     1  UNL1       -0.0591
     10 H           3.8488   13.4697    9.2853 H       1  UNL1        0.0235
     11 H           2.8672   12.0003    9.3611 H       1  UNL1        0.0235
     12 H           4.6196   11.8715    9.1316 H       1  UNL1        0.0235
     13 C           5.3337   13.0989   11.5146 C.3     1  UNL1       -0.0591
     14 H           5.3200   14.1220   11.1402 H       1  UNL1        0.0235
     15 H           6.1830   12.5661   11.0811 H       1  UNL1        0.0235
     16 H           5.4592   13.1260   12.5953 H       1  UNL1        0.0235
     17 C           4.3880    7.3607   13.0986 C.3     1  UNL1        0.0329
     18 C           3.7259    7.4676   14.4776 C.3     1  UNL1       -0.0454
     19 H           2.6816    7.7557   14.3681 H       1  UNL1        0.0248
     20 H           4.2304    8.2256   15.0751 H       1  UNL1        0.0248
     21 H           3.7791    6.5125   14.9957 H       1  UNL1        0.0248
     22 C           3.6391    6.3012   12.2628 C.3     1  UNL1       -0.0454
     23 H           2.5763    6.5367   12.2328 H       1  UNL1        0.0248
     24 H           3.7628    5.3088   12.6918 H       1  UNL1        0.0248
     25 H           4.0251    6.3091   11.2418 H       1  UNL1        0.0248
     26 C           5.8577    6.9210   13.2716 C.3     1  UNL1       -0.0454
     27 H           6.3446    7.5391   14.0239 H       1  UNL1        0.0248
     28 H           6.3872    7.0529   12.3218 H       1  UNL1        0.0248
     29 H           5.9207    5.8793   13.5816 H       1  UNL1        0.0248
@<TRIPOS>BOND
     1    12     9    1
     2    10     9    1
     3    11     9    1
     4     9     4    1
     5    15    13    1
     6    14    13    1
     7     4    13    1
     8     4     3    1
     9     4     5    1
    10    25    22    1
    11    13    16    1
    12     3     1    1
    13     6     5    1
    14     8     5    1
    15     5     7    1
    16    23    22    1
    17    22    24    1
    18    22    17    1
    19    28    26    1
    20     2     1    1
    21     2    17    1
    22    17    26    1
    23    17    18    1
    24    26    29    1
    25    26    27    1
    26    19    18    1
    27    18    21    1
    28    18    20    1
