@<TRIPOS>MOLECULE
1,2
 23 23 0 0 0
SMALL
GASTEIGER

@<TRIPOS>ATOM
      1 N          -0.4205    9.4549    2.8062 N.2     1  UNL1       -0.2502
      2 C          -0.3220   10.6989    2.9850 C.2     1  UNL1        0.0598
      3 C          -1.3036   11.6995    2.4642 C.3     1  UNL1       -0.0206
      4 H          -2.1741   11.2100    2.0186 H       1  UNL1        0.0293
      5 H          -0.8193   12.3245    1.7127 H       1  UNL1        0.0293
      6 H          -1.6210   12.3564    3.2734 H       1  UNL1        0.0293
      7 C          -1.3968    8.6624    2.1902 C.ar    1  UNL1        0.0700
      8 C          -1.2910    8.3523    0.8315 C.ar    1  UNL1       -0.0248
      9 C          -2.2496    7.5263    0.2656 C.ar    1  UNL1       -0.0568
     10 H          -2.1837    7.2811   -0.7844 H       1  UNL1        0.0621
     11 C          -3.2777    7.0092    1.0341 C.ar    1  UNL1       -0.0611
     12 H          -4.0175    6.3676    0.5798 H       1  UNL1        0.0618
     13 C          -3.3497    7.2969    2.3863 C.ar    1  UNL1       -0.0568
     14 H          -4.1405    6.8725    2.9870 H       1  UNL1        0.0621
     15 C          -2.4108    8.1202    2.9881 C.ar    1  UNL1       -0.0248
     16 C          -0.1346    8.8894    0.0429 C.3     1  UNL1       -0.0377
     17 H          -0.1627    9.9801    0.0003 H       1  UNL1        0.0278
     18 H          -0.1459    8.5034   -0.9731 H       1  UNL1        0.0278
     19 H           0.8024    8.5900    0.5197 H       1  UNL1        0.0278
     20 C          -2.4367    8.4325    4.4527 C.3     1  UNL1       -0.0377
     21 H          -3.1868    7.8334    4.9615 H       1  UNL1        0.0278
     22 H          -2.6592    9.4875    4.6211 H       1  UNL1        0.0278
     23 H          -1.4533    8.2364    4.8935 H       1  UNL1        0.0278
@<TRIPOS>BOND
     1    18    16    1
     2    10     9    1
     3    17    16    1
     4    16    19    1
     5    16     8    1
     6     9     8   ar
     7     9    11   ar
     8    12    11    1
     9     8     7   ar
    10    11    13   ar
    11     5     3    1
    12     4     3    1
    13     7     1    1
    14     7    15   ar
    15    13    14    1
    16    13    15   ar
    17     3     2    1
    18     3     6    1
    19     1     2    2
    20    15    20    1
    21    20    22    1
    22    20    23    1
    23    20    21    1
