@<TRIPOS>MOLECULE
1,4
 46 46 0 0 0
SMALL
GASTEIGER

@<TRIPOS>ATOM
      1 N           1.0107    3.1658    6.0580 N.pl3   1  UNL1        0.0000
      2 C           1.3199    4.0594    7.0323 C.3     1  UNL1        0.0000
      3 SI         -0.1639    5.0151    7.7333 Si      1  UNL1        0.0000
      4 C          -1.5252    3.8258    7.1651 C.3     1  UNL1        0.0000
      5 SI         -1.3349    2.1802    8.1420 Si      1  UNL1        0.0000
      6 C           0.4149    1.6533    8.7552 C.3     1  UNL1        0.0000
      7 H           0.3205    0.8756    9.5087 H       1  UNL1        0.0000
      8 H           0.9686    2.4688    9.2027 H       1  UNL1        0.0000
      9 H           1.0269    1.2496    7.9546 H       1  UNL1        0.0000
     10 C          -1.8321    0.5551    7.2241 C.3     1  UNL1        0.0000
     11 H          -1.4525   -0.3008    7.7758 H       1  UNL1        0.0000
     12 H          -1.4083    0.5021    6.2200 H       1  UNL1        0.0000
     13 H          -2.9074    0.4249    7.1559 H       1  UNL1        0.0000
     14 C          -2.3530    2.1528    9.7685 C.3     1  UNL1        0.0000
     15 H          -2.3102    1.1732   10.2356 H       1  UNL1        0.0000
     16 H          -3.3957    2.3920    9.6038 H       1  UNL1        0.0000
     17 H          -1.9622    2.8695   10.4824 H       1  UNL1        0.0000
     18 SI         -3.2483    4.6221    7.3712 Si      1  UNL1        0.0000
     19 C          -3.4198    5.5701    9.0319 C.3     1  UNL1        0.0000
     20 H          -4.4382    5.9195    9.1745 H       1  UNL1        0.0000
     21 H          -2.7742    6.4408    9.0538 H       1  UNL1        0.0000
     22 H          -3.1653    4.9506    9.8830 H       1  UNL1        0.0000
     23 C          -4.7372    3.4050    7.3624 C.3     1  UNL1        0.0000
     24 H          -5.3967    3.6026    8.2021 H       1  UNL1        0.0000
     25 H          -4.4300    2.3688    7.4300 H       1  UNL1        0.0000
     26 H          -5.3247    3.5135    6.4573 H       1  UNL1        0.0000
     27 C          -3.6395    5.9640    6.0645 C.3     1  UNL1        0.0000
     28 H          -4.6700    6.2927    6.1636 H       1  UNL1        0.0000
     29 H          -3.5055    5.6029    5.0527 H       1  UNL1        0.0000
     30 H          -3.0098    6.8364    6.1904 H       1  UNL1        0.0000
     31 C          -0.1572    6.8047    7.0649 C.3     1  UNL1        0.0000
     32 H           0.7240    7.3373    7.4102 H       1  UNL1        0.0000
     33 H          -1.0248    7.3484    7.4195 H       1  UNL1        0.0000
     34 H          -0.1540    6.8328    5.9838 H       1  UNL1        0.0000
     35 C           0.1214    5.2527    9.6179 C.3     1  UNL1        0.0000
     36 H           1.0339    5.8071    9.8178 H       1  UNL1        0.0000
     37 H           0.1837    4.3118   10.1523 H       1  UNL1        0.0000
     38 H          -0.6958    5.8172   10.0517 H       1  UNL1        0.0000
     39 C           2.5822    4.1152    7.5968 C.2     1  UNL1        0.0000
     40 H           2.7775    4.8596    8.3529 H       1  UNL1        0.0000
     41 C           3.5791    3.2323    7.2149 C.2     1  UNL1        0.0000
     42 H           4.5668    3.2696    7.6473 H       1  UNL1        0.0000
     43 C           3.2389    2.2749    6.2672 C.2     1  UNL1        0.0000
     44 H           3.9501    1.5278    5.9492 H       1  UNL1        0.0000
     45 C           1.9734    2.2906    5.7235 C.2     1  UNL1        0.0000
     46 H           1.7076    1.5618    4.9758 H       1  UNL1        0.0000
@<TRIPOS>BOND
     1    46    45    1
     2    29    27    1
     3    45     1    1
     4    45    43    2
     5    44    43    1
     6    34    31    1
     7     1     2    1
     8    27    28    1
     9    27    30    1
    10    27    18    1
    11    12    10    1
    12    43    41    1
    13    26    23    1
    14     2    39    1
    15     2     3    1
    16    31    32    1
    17    31    33    1
    18    31     3    1
    19    13    10    1
    20     4    18    1
    21     4     3    1
    22     4     5    1
    23    41    39    2
    24    41    42    1
    25    10    11    1
    26    10     5    1
    27    23    18    1
    28    23    25    1
    29    23    24    1
    30    18    19    1
    31    39    40    1
    32     3    35    1
    33     9     6    1
    34     5     6    1
    35     5    14    1
    36     6     8    1
    37     6     7    1
    38    19    21    1
    39    19    20    1
    40    19    22    1
    41    16    14    1
    42    35    36    1
    43    35    38    1
    44    35    37    1
    45    14    15    1
    46    14    17    1
