@<TRIPOS>MOLECULE
4,5
 46 46 0 0 0
SMALL
GASTEIGER

@<TRIPOS>ATOM
      1 SI         -1.3215    5.0151    2.6784 Si      1  UNL1        0.0000
      2 SI         -0.1507    2.1801    2.2697 Si      1  UNL1        0.0000
      3 SI          1.7628    4.6221    3.0405 Si      1  UNL1        0.0000
      4 N          -2.4962    3.1658    4.3536 N.pl3   1  UNL1        0.0000
      5 C           0.0397    3.8257    3.2466 C.3     1  UNL1        0.0000
      6 C          -1.3281    6.8046    3.3468 C.3     1  UNL1        0.0000
      7 H          -2.2093    7.3373    3.0018 H       1  UNL1        0.0000
      8 H          -0.4605    7.3483    2.9920 H       1  UNL1        0.0000
      9 H          -1.3309    6.8328    4.4279 H       1  UNL1        0.0000
     10 C          -1.6071    5.2527    0.7938 C.3     1  UNL1        0.0000
     11 H          -2.5194    5.8075    0.5940 H       1  UNL1        0.0000
     12 H          -1.6699    4.3118    0.2595 H       1  UNL1        0.0000
     13 H          -0.7898    5.8168    0.3599 H       1  UNL1        0.0000
     14 C          -2.8054    4.0594    3.3793 C.3     1  UNL1        0.0000
     15 C          -4.0677    4.1152    2.8148 C.2     1  UNL1        0.0000
     16 H          -4.2630    4.8596    2.0587 H       1  UNL1        0.0000
     17 C          -5.0645    3.2322    3.1966 C.2     1  UNL1        0.0000
     18 H          -6.0523    3.2695    2.7640 H       1  UNL1        0.0000
     19 C          -4.7245    2.2749    4.1444 C.2     1  UNL1        0.0000
     20 H          -5.4356    1.5277    4.4623 H       1  UNL1        0.0000
     21 C          -3.4590    2.2906    4.6882 C.2     1  UNL1        0.0000
     22 H          -3.1932    1.5619    5.4359 H       1  UNL1        0.0000
     23 C          -1.9006    1.6530    1.6568 C.3     1  UNL1        0.0000
     24 H          -1.8062    0.8752    0.9034 H       1  UNL1        0.0000
     25 H          -2.4545    2.4684    1.2094 H       1  UNL1        0.0000
     26 H          -2.5122    1.2492    2.4576 H       1  UNL1        0.0000
     27 C           0.3473    0.5551    3.1872 C.3     1  UNL1        0.0000
     28 H          -0.0319   -0.3008    2.6352 H       1  UNL1        0.0000
     29 H          -0.0767    0.5015    4.1912 H       1  UNL1        0.0000
     30 H           1.4226    0.4252    3.2555 H       1  UNL1        0.0000
     31 C           0.8670    2.1531    0.6428 C.3     1  UNL1        0.0000
     32 H           0.8238    1.1737    0.1755 H       1  UNL1        0.0000
     33 H           1.9098    2.3919    0.8072 H       1  UNL1        0.0000
     34 H           0.4762    2.8700   -0.0707 H       1  UNL1        0.0000
     35 C           1.9343    5.5700    1.3798 C.3     1  UNL1        0.0000
     36 H           2.9526    5.9195    1.2371 H       1  UNL1        0.0000
     37 H           1.2887    6.4408    1.3579 H       1  UNL1        0.0000
     38 H           1.6797    4.9506    0.5286 H       1  UNL1        0.0000
     39 C           3.2515    3.4049    3.0491 C.3     1  UNL1        0.0000
     40 H           3.9111    3.6026    2.2096 H       1  UNL1        0.0000
     41 H           2.9443    2.3687    2.9812 H       1  UNL1        0.0000
     42 H           3.8389    3.5130    3.9543 H       1  UNL1        0.0000
     43 C           2.1542    5.9639    4.3472 C.3     1  UNL1        0.0000
     44 H           3.1848    6.2923    4.2481 H       1  UNL1        0.0000
     45 H           2.0200    5.6029    5.3591 H       1  UNL1        0.0000
     46 H           1.5248    6.8364    4.2211 H       1  UNL1        0.0000
@<TRIPOS>BOND
     1    34    31    1
     2    32    31    1
     3    12    10    1
     4    13    10    1
     5    38    35    1
     6    11    10    1
     7    31    33    1
     8    31     2    1
     9    10     1    1
    10    24    23    1
    11    25    23    1
    12    36    35    1
    13    37    35    1
    14    35     3    1
    15    23     2    1
    16    23    26    1
    17    16    15    1
    18    40    39    1
    19     2    27    1
    20     2     5    1
    21    28    27    1
    22     1     5    1
    23     1     6    1
    24     1    14    1
    25    18    17    1
    26    15    17    2
    27    15    14    1
    28    41    39    1
    29     8     6    1
    30     7     6    1
    31     3    39    1
    32     3     5    1
    33     3    43    1
    34    39    42    1
    35    27    30    1
    36    27    29    1
    37    17    19    1
    38     6     9    1
    39    14     4    1
    40    19    20    1
    41    19    21    2
    42    46    43    1
    43    44    43    1
    44    43    45    1
    45     4    21    1
    46    21    22    1
