@<TRIPOS>MOLECULE
8,13
 65 67 0 0 0
SMALL
GASTEIGER

@<TRIPOS>ATOM
      1 SI          3.3204    0.4197    8.0919 Si      1  UNL1        0.0000
      2 F           6.1887    6.4557    7.1606 F       1  UNL1        0.0000
      3 F           6.3722    7.0129    9.2296 F       1  UNL1        0.0000
      4 F           8.0283    6.0897    8.2127 F       1  UNL1        0.0000
      5 F           9.2647    1.2404   14.9249 F       1  UNL1        0.0000
      6 F           7.5941    0.6728   16.1532 F       1  UNL1        0.0000
      7 F           8.8880   -0.8371   15.3356 F       1  UNL1        0.0000
      8 N           3.1483    1.4247    4.6120 N.3     1  UNL1        0.0000
      9 C           3.6110    2.8228    4.5163 C.3     1  UNL1        0.0000
     10 C           4.5121    2.8822    3.2729 C.3     1  UNL1        0.0000
     11 C           2.3416    3.6561    4.2825 C.3     1  UNL1        0.0000
     12 C           4.3699    3.4040    5.7180 C.3     1  UNL1        0.0000
     13 C           3.4478    0.4017    5.3309 C.3     1  UNL1        0.0000
     14 C           4.3849    0.3561    6.4960 C.3     1  UNL1        0.0000
     15 C           1.9247    1.7180    7.9667 C.3     1  UNL1        0.0000
     16 C           2.5625   -1.2846    8.4259 C.ar    1  UNL1        0.0000
     17 C           2.6120   -2.3010    7.4747 C.ar    1  UNL1        0.0000
     18 C           2.0495   -3.5397    7.7244 C.ar    1  UNL1        0.0000
     19 C           1.4204   -3.7862    8.9331 C.ar    1  UNL1        0.0000
     20 C           1.3483   -2.7830    9.8853 C.ar    1  UNL1        0.0000
     21 C           1.9125   -1.5462    9.6306 C.ar    1  UNL1        0.0000
     22 C           4.5295    0.8712    9.5070 C.2     1  UNL1        0.0000
     23 C           5.1352    2.1961    9.3326 C.ar    1  UNL1        0.0000
     24 C           6.3593    2.3164    8.6752 C.ar    1  UNL1        0.0000
     25 C           6.8803    3.5596    8.3772 C.ar    1  UNL1        0.0000
     26 C           6.1769    4.7020    8.7374 C.ar    1  UNL1        0.0000
     27 C           4.9663    4.6001    9.4113 C.ar    1  UNL1        0.0000
     28 C           4.4513    3.3529    9.7042 C.ar    1  UNL1        0.0000
     29 C           6.6948    6.0544    8.3479 C.3     1  UNL1        0.0000
     30 C           4.8196   -0.0004   10.4801 C.2     1  UNL1        0.0000
     31 C           5.7175    0.1426   11.6170 C.ar    1  UNL1        0.0000
     32 C           6.0003   -1.0048   12.3669 C.ar    1  UNL1        0.0000
     33 C           6.8360   -0.9591   13.4629 C.ar    1  UNL1        0.0000
     34 C           7.4076    0.2512   13.8352 C.ar    1  UNL1        0.0000
     35 C           7.1306    1.4061   13.1145 C.ar    1  UNL1        0.0000
     36 C           6.2958    1.3499   12.0167 C.ar    1  UNL1        0.0000
     37 C           8.2878    0.3282   15.0480 C.3     1  UNL1        0.0000
     38 H           3.9505    2.5692    2.3935 H       1  UNL1        0.0000
     39 H           4.8693    3.8978    3.1202 H       1  UNL1        0.0000
     40 H           5.3720    2.2231    3.3993 H       1  UNL1        0.0000
     41 H           1.7586    3.2181    3.4726 H       1  UNL1        0.0000
     42 H           2.6035    4.6765    4.0148 H       1  UNL1        0.0000
     43 H           1.7351    3.6787    5.1871 H       1  UNL1        0.0000
     44 H           3.8632    3.1879    6.6534 H       1  UNL1        0.0000
     45 H           4.4234    4.4851    5.6033 H       1  UNL1        0.0000
     46 H           5.3910    3.0336    5.7664 H       1  UNL1        0.0000
     47 H           5.1272    1.1534    6.5006 H       1  UNL1        0.0000
     48 H           4.9181   -0.5971    6.4850 H       1  UNL1        0.0000
     49 H           2.2525    2.7097    8.2638 H       1  UNL1        0.0000
     50 H           1.0811    1.4511    8.5975 H       1  UNL1        0.0000
     51 H           1.5641    1.7808    6.9418 H       1  UNL1        0.0000
     52 H           3.0800   -2.1062    6.5185 H       1  UNL1        0.0000
     53 H           2.1003   -4.3176    6.9759 H       1  UNL1        0.0000
     54 H           0.9822   -4.7530    9.1307 H       1  UNL1        0.0000
     55 H           0.8508   -2.9660   10.8263 H       1  UNL1        0.0000
     56 H           1.8476   -0.7666   10.3761 H       1  UNL1        0.0000
     57 H           6.9013    1.4231    8.4044 H       1  UNL1        0.0000
     58 H           7.8267    3.6495    7.8663 H       1  UNL1        0.0000
     59 H           4.4346    5.4938    9.6999 H       1  UNL1        0.0000
     60 H           3.5185    3.2659   10.2403 H       1  UNL1        0.0000
     61 H           4.3309   -0.9656   10.4389 H       1  UNL1        0.0000
     62 H           5.5558   -1.9461   12.0785 H       1  UNL1        0.0000
     63 H           7.0485   -1.8529   14.0294 H       1  UNL1        0.0000
     64 H           7.5719    2.3443   13.4146 H       1  UNL1        0.0000
     65 H           6.0846    2.2563   11.4752 H       1  UNL1        0.0000
@<TRIPOS>BOND
     1    38    10    1
     2    39    10    1
     3    10    40    1
     4    10     9    1
     5    41    11    1
     6    42    11    1
     7    11     9    1
     8    11    43    1
     9     9     8    1
    10     9    12    1
    11     8    13    1
    12    13    14    1
    13    45    12    1
    14    12    46    1
    15    12    44    1
    16    48    14    1
    17    14    47    1
    18    14     1    1
    19    52    17    1
    20    51    15    1
    21    53    18    1
    22     2    29    1
    23    17    18   ar
    24    17    16   ar
    25    18    19   ar
    26    58    25    1
    27    15     1    1
    28    15    49    1
    29    15    50    1
    30     1    16    1
    31     1    22    1
    32     4    29    1
    33    29    26    1
    34    29     3    1
    35    25    24   ar
    36    25    26   ar
    37    57    24    1
    38    16    21   ar
    39    24    23   ar
    40    26    27   ar
    41    19    54    1
    42    19    20   ar
    43    23    22    1
    44    23    28   ar
    45    27    59    1
    46    27    28   ar
    47    22    30    2
    48    21    20   ar
    49    21    56    1
    50    28    60    1
    51    20    55    1
    52    61    30    1
    53    30    31    1
    54    65    36    1
    55    31    36   ar
    56    31    32   ar
    57    36    35   ar
    58    62    32    1
    59    32    33   ar
    60    35    64    1
    61    35    34   ar
    62    33    34   ar
    63    33    63    1
    64    34    37    1
    65     5    37    1
    66    37     7    1
    67    37     6    1
