@<TRIPOS>MOLECULE
2
 44 44 0 0 0
SMALL
GASTEIGER

@<TRIPOS>ATOM
      1 SI          3.3374    6.2440    3.7647 Si      1  UNL1        0.0000
      2 N           4.4358    5.5572    2.5774 N.3     1  UNL1        0.0000
      3 C           3.4975    4.6610    4.8124 C.3     1  UNL1        0.0000
      4 C           3.0321    3.3984    4.2779 C.3     1  UNL1        0.0000
      5 C           3.6677    2.3520    5.0094 C.2     1  UNL1        0.0000
      6 C           4.5716    2.9401    5.9127 C.2     1  UNL1        0.0000
      7 C           4.4935    4.3498    5.7754 C.3     1  UNL1        0.0000
      8 C           1.7641    3.2536    3.4831 C.3     1  UNL1        0.0000
      9 H           0.9259    3.6357    4.0680 H       1  UNL1        0.0000
     10 H           1.5601    2.2108    3.2543 H       1  UNL1        0.0000
     11 H           1.8129    3.8159    2.5516 H       1  UNL1        0.0000
     12 C           3.3283    0.8943    4.9869 C.3     1  UNL1        0.0000
     13 H           2.6343    0.6700    5.8000 H       1  UNL1        0.0000
     14 H           2.8548    0.6026    4.0528 H       1  UNL1        0.0000
     15 H           4.2169    0.2826    5.1330 H       1  UNL1        0.0000
     16 C           5.3908    2.1920    6.9219 C.3     1  UNL1        0.0000
     17 H           4.7441    1.8009    7.7092 H       1  UNL1        0.0000
     18 H           5.9037    1.3439    6.4671 H       1  UNL1        0.0000
     19 H           6.1336    2.8362    7.3887 H       1  UNL1        0.0000
     20 C           5.2016    5.3194    6.6730 C.3     1  UNL1        0.0000
     21 H           4.7571    5.2826    7.6701 H       1  UNL1        0.0000
     22 H           5.1115    6.3344    6.3018 H       1  UNL1        0.0000
     23 H           6.2609    5.0826    6.7832 H       1  UNL1        0.0000
     24 C           3.8884    7.8593    4.6363 C.3     1  UNL1        0.0000
     25 H           3.4598    7.9279    5.6310 H       1  UNL1        0.0000
     26 H           3.5418    8.7241    4.0808 H       1  UNL1        0.0000
     27 H           4.9657    7.9455    4.7244 H       1  UNL1        0.0000
     28 C           1.5362    6.5953    3.1897 C.3     1  UNL1        0.0000
     29 H           1.2408    6.0163    2.3218 H       1  UNL1        0.0000
     30 H           1.4178    7.6440    2.9384 H       1  UNL1        0.0000
     31 H           0.8314    6.3764    3.9846 H       1  UNL1        0.0000
     32 C           4.7565    6.1724    1.2986 C.3     1  UNL1        0.0000
     33 C           4.5487    7.6926    1.3386 C.3     1  UNL1        0.0000
     34 H           3.5044    7.9289    1.5156 H       1  UNL1        0.0000
     35 H           5.1499    8.1334    2.1277 H       1  UNL1        0.0000
     36 H           4.8448    8.1320    0.3892 H       1  UNL1        0.0000
     37 C           3.8492    5.5834    0.2038 C.3     1  UNL1        0.0000
     38 H           4.0437    4.5204    0.0838 H       1  UNL1        0.0000
     39 H           2.8063    5.7250    0.4770 H       1  UNL1        0.0000
     40 H           4.0313    6.0819   -0.7449 H       1  UNL1        0.0000
     41 C           6.2268    5.9198    0.9190 C.3     1  UNL1        0.0000
     42 H           6.4420    4.8552    0.8365 H       1  UNL1        0.0000
     43 H           6.4374    6.3783   -0.0448 H       1  UNL1        0.0000
     44 H           6.8915    6.3711    1.6533 H       1  UNL1        0.0000
@<TRIPOS>BOND
     1    40    37    1
     2    43    41    1
     3    38    37    1
     4    37    39    1
     5    37    32    1
     6    36    33    1
     7    42    41    1
     8    41    32    1
     9    41    44    1
    10    32    33    1
    11    32     2    1
    12    33    34    1
    13    33    35    1
    14    29    28    1
    15    11     8    1
    16     2     1    1
    17    30    28    1
    18    28     1    1
    19    28    31    1
    20    10     8    1
    21     8     9    1
    22     8     4    1
    23     1    24    1
    24     1     3    1
    25    14    12    1
    26    26    24    1
    27     4     3    1
    28     4     5    1
    29    24    27    1
    30    24    25    1
    31     3     7    1
    32    12     5    1
    33    12    15    1
    34    12    13    1
    35     5     6    2
    36     7     6    1
    37     7    20    1
    38     6    16    1
    39    22    20    1
    40    18    16    1
    41    20    23    1
    42    20    21    1
    43    16    19    1
    44    16    17    1
