@<TRIPOS>MOLECULE
5,6
 59 61 0 0 0
SMALL
GASTEIGER

@<TRIPOS>ATOM
      1 SI          2.7900    1.7715   26.1980 Si      1  UNL1        0.0000
      2 SI          2.5976    2.4454   28.4947 Si      1  UNL1        0.0000
      3 SI          0.7234    0.8057   25.4385 Si      1  UNL1        0.0000
      4 SI          3.4906    3.5751   24.7835 Si      1  UNL1        0.0000
      5 N           5.0127   -0.0600   25.8571 N.2     1  UNL1        0.0000
      6 C           3.8578    0.2067   26.3393 C.2     1  UNL1        0.0000
      7 C           5.8769    0.6785   25.0348 C.ar    1  UNL1        0.0000
      8 C           5.8643    0.4330   23.6518 C.ar    1  UNL1        0.0000
      9 C           6.8383    1.0144   22.8572 C.ar    1  UNL1        0.0000
     10 H           6.8277    0.8298   21.7926 H       1  UNL1        0.0000
     11 C           7.8186    1.8231   23.4068 C.ar    1  UNL1        0.0000
     12 H           8.5751    2.2639   22.7755 H       1  UNL1        0.0000
     13 C           7.8174    2.0682   24.7665 C.ar    1  UNL1        0.0000
     14 H           8.5729    2.7069   25.2015 H       1  UNL1        0.0000
     15 C           6.8553    1.5091   25.5977 C.ar    1  UNL1        0.0000
     16 C           6.8700    1.8279   27.0633 C.3     1  UNL1        0.0000
     17 H           6.2168    1.1662   27.6258 H       1  UNL1        0.0000
     18 H           6.5291    2.8496   27.2194 H       1  UNL1        0.0000
     19 H           7.8804    1.7510   27.4622 H       1  UNL1        0.0000
     20 C           4.7903   -0.4203   23.0512 C.3     1  UNL1        0.0000
     21 H           3.8350    0.1034   23.0874 H       1  UNL1        0.0000
     22 H           4.6679   -1.3516   23.6024 H       1  UNL1        0.0000
     23 H           5.0189   -0.6526   22.0140 H       1  UNL1        0.0000
     24 C           4.2158    3.1687   29.2287 C.3     1  UNL1        0.0000
     25 H           4.6737    3.8950   28.5637 H       1  UNL1        0.0000
     26 H           4.9411    2.3843   29.4187 H       1  UNL1        0.0000
     27 H           4.0266    3.6708   30.1741 H       1  UNL1        0.0000
     28 C           1.9676    1.1588   29.7545 C.3     1  UNL1        0.0000
     29 H           2.6817    0.3499   29.8686 H       1  UNL1        0.0000
     30 H           1.0288    0.7137   29.4438 H       1  UNL1        0.0000
     31 H           1.8177    1.6015   30.7371 H       1  UNL1        0.0000
     32 C           1.3265    3.8790   28.4861 C.3     1  UNL1        0.0000
     33 H           0.9653    4.0926   29.4871 H       1  UNL1        0.0000
     34 H           0.4632    3.6501   27.8702 H       1  UNL1        0.0000
     35 H           1.7668    4.7930   28.1031 H       1  UNL1        0.0000
     36 C           0.9435   -0.8209   24.4611 C.3     1  UNL1        0.0000
     37 H          -0.0110   -1.2588   24.1796 H       1  UNL1        0.0000
     38 H           1.4666   -1.5543   25.0674 H       1  UNL1        0.0000
     39 H           1.5180   -0.6798   23.5500 H       1  UNL1        0.0000
     40 C          -0.5167    0.4800   26.8568 C.3     1  UNL1        0.0000
     41 H          -0.6755    1.3686   27.4604 H       1  UNL1        0.0000
     42 H          -0.1578   -0.3076   27.5099 H       1  UNL1        0.0000
     43 H          -1.4852    0.1704   26.4718 H       1  UNL1        0.0000
     44 C          -0.1713    2.0256   24.2613 C.3     1  UNL1        0.0000
     45 H           0.4632    2.3613   23.4483 H       1  UNL1        0.0000
     46 H          -0.5103    2.9045   24.7996 H       1  UNL1        0.0000
     47 H          -1.0490    1.5645   23.8185 H       1  UNL1        0.0000
     48 C           2.1356    4.9216   24.9013 C.3     1  UNL1        0.0000
     49 H           2.0919    5.3499   25.8966 H       1  UNL1        0.0000
     50 H           1.1523    4.5282   24.6737 H       1  UNL1        0.0000
     51 H           2.3280    5.7357   24.2081 H       1  UNL1        0.0000
     52 C           3.6379    3.1176   22.9270 C.3     1  UNL1        0.0000
     53 H           3.6303    4.0043   22.2983 H       1  UNL1        0.0000
     54 H           2.8127    2.4886   22.6066 H       1  UNL1        0.0000
     55 H           4.5598    2.5831   22.7228 H       1  UNL1        0.0000
     56 C           5.1078    4.5085   25.2207 C.3     1  UNL1        0.0000
     57 H           5.9894    3.9226   24.9847 H       1  UNL1        0.0000
     58 H           5.1438    4.7603   26.2765 H       1  UNL1        0.0000
     59 H           5.1799    5.4413   24.6667 H       1  UNL1        0.0000
@<TRIPOS>BOND
     1    10     9    1
     2    23    20    1
     3    53    52    1
     4    54    52    1
     5    55    52    1
     6    12    11    1
     7     9    11   ar
     8     9     8   ar
     9    52     4    1
    10    20    21    1
    11    20    22    1
    12    20     8    1
    13    11    13   ar
    14    45    44    1
    15    39    36    1
    16     8     7   ar
    17    47    44    1
    18    37    36    1
    19    51    48    1
    20    44    46    1
    21    44     3    1
    22    36    38    1
    23    36     3    1
    24    59    56    1
    25    50    48    1
    26    13    14    1
    27    13    15   ar
    28     4    48    1
    29     4    56    1
    30     4     1    1
    31    48    49    1
    32    57    56    1
    33     7    15   ar
    34     7     5    1
    35    56    58    1
    36     3     1    1
    37     3    40    1
    38    15    16    1
    39     5     6    2
    40     1     6    1
    41     1     2    1
    42    43    40    1
    43    40    41    1
    44    40    42    1
    45    16    18    1
    46    16    19    1
    47    16    17    1
    48    34    32    1
    49    35    32    1
    50    32     2    1
    51    32    33    1
    52     2    24    1
    53     2    28    1
    54    25    24    1
    55    24    26    1
    56    24    27    1
    57    30    28    1
    58    28    29    1
    59    28    31    1
    60     1     5    0
    61     1    32    0
