@<TRIPOS>MOLECULE
2
 43 46 0 0 0
SMALL
GASTEIGER

@<TRIPOS>ATOM
      1 SI          2.4557    3.8382   21.5957 Si      1  UNL1        0.0000
      2 N           2.8731    4.9462   20.2490 N.3     1  UNL1        0.0000
      3 C           1.2562    2.6035   20.8253 C.3     1  UNL1        0.0000
      4 C           1.7451    1.3975   20.1666 C.ar    1  UNL1        0.0000
      5 C           2.9278    1.1511   19.4630 C.ar    1  UNL1        0.0000
      6 H           3.6624    1.9364   19.3381 H       1  UNL1        0.0000
      7 C           3.1562   -0.1007   18.9306 C.ar    1  UNL1        0.0000
      8 H           4.0710   -0.2910   18.3872 H       1  UNL1        0.0000
      9 C           2.2241   -1.1284   19.0769 C.ar    1  UNL1        0.0000
     10 H           2.4282   -2.0966   18.6432 H       1  UNL1        0.0000
     11 C           1.0533   -0.9172   19.7765 C.ar    1  UNL1        0.0000
     12 H           0.3382   -1.7192   19.9023 H       1  UNL1        0.0000
     13 C           0.8115    0.3342   20.3318 C.ar    1  UNL1        0.0000
     14 C          -0.2741    0.8306   21.1259 C.ar    1  UNL1        0.0000
     15 C          -1.4223    0.2066   21.5975 C.ar    1  UNL1        0.0000
     16 H          -1.6118   -0.8338   21.3680 H       1  UNL1        0.0000
     17 C          -2.3066    0.9262   22.3753 C.ar    1  UNL1        0.0000
     18 H          -3.2023    0.4565   22.7568 H       1  UNL1        0.0000
     19 C          -2.0497    2.2640   22.6784 C.ar    1  UNL1        0.0000
     20 H          -2.7564    2.8092   23.2889 H       1  UNL1        0.0000
     21 C          -0.9150    2.9004   22.2182 C.ar    1  UNL1        0.0000
     22 H          -0.7439    3.9376   22.4641 H       1  UNL1        0.0000
     23 C           0.0009    2.1944   21.4339 C.ar    1  UNL1        0.0000
     24 C           1.7372    4.8423   23.0550 C.3     1  UNL1        0.0000
     25 H           2.4961    5.4727   23.5075 H       1  UNL1        0.0000
     26 H           1.3726    4.1682   23.8215 H       1  UNL1        0.0000
     27 H           0.9115    5.4799   22.7601 H       1  UNL1        0.0000
     28 C           4.0123    2.9848   22.3195 C.3     1  UNL1        0.0000
     29 H           4.3889    2.2117   21.6589 H       1  UNL1        0.0000
     30 H           3.7687    2.5035   23.2611 H       1  UNL1        0.0000
     31 H           4.8187    3.6867   22.5083 H       1  UNL1        0.0000
     32 C           2.7169    6.3865   20.4212 C.3     1  UNL1        0.0000
     33 H           1.8946    6.6213   21.0923 H       1  UNL1        0.0000
     34 H           2.5122    6.8411   19.4422 H       1  UNL1        0.0000
     35 C           4.0694    6.8826   20.9478 C.3     1  UNL1        0.0000
     36 H           4.2534    7.9222   20.6839 H       1  UNL1        0.0000
     37 H           4.0964    6.7928   22.0334 H       1  UNL1        0.0000
     38 C           5.0766    5.9220   20.3010 C.3     1  UNL1        0.0000
     39 H           5.7393    5.4866   21.0472 H       1  UNL1        0.0000
     40 H           5.6928    6.4228   19.5560 H       1  UNL1        0.0000
     41 C           4.1975    4.8378   19.6453 C.3     1  UNL1        0.0000
     42 H           4.1136    5.0309   18.5687 H       1  UNL1        0.0000
     43 H           4.6110    3.8424   19.7863 H       1  UNL1        0.0000
@<TRIPOS>BOND
     1     8     7    1
     2    42    41    1
     3    10     9    1
     4     7     9   ar
     5     7     5   ar
     6     9    11   ar
     7     6     5    1
     8    34    32    1
     9     5     4   ar
    10    40    38    1
    11    41    43    1
    12    41     2    1
    13    41    38    1
    14    11    12    1
    15    11    13   ar
    16     4    13   ar
    17     4     3    1
    18     2    32    1
    19     2     1    1
    20    38    35    1
    21    38    39    1
    22    13    14    1
    23    32    35    1
    24    32    33    1
    25    36    35    1
    26     3    23    1
    27     3     1    1
    28    35    37    1
    29    14    23   ar
    30    14    15   ar
    31    16    15    1
    32    23    21   ar
    33     1    28    1
    34     1    24    1
    35    15    17   ar
    36    29    28    1
    37    21    22    1
    38    21    19   ar
    39    28    31    1
    40    28    30    1
    41    17    19   ar
    42    17    18    1
    43    19    20    1
    44    27    24    1
    45    24    25    1
    46    24    26    1
