@<TRIPOS>MOLECULE
1,6
 29 30 0 0 0
SMALL
GASTEIGER

@<TRIPOS>ATOM
      1 N           5.8470    1.9397   -1.1709 N.pl3   1  UNL1       -0.2230
      2 C           6.8983    1.3273   -0.5080 C.2     1  UNL1        0.0140
      3 H           7.7686    1.0326   -1.0940 H       1  UNL1        0.0799
      4 C           6.8668    1.1685    0.8296 C.2     1  UNL1       -0.0600
      5 H           7.7347    0.7682    1.3456 H       1  UNL1        0.0591
      6 C           5.6022    1.4287    1.5922 C.3     1  UNL1        0.0140
      7 H           4.9306    0.5521    1.4999 H       1  UNL1        0.0401
      8 C           5.7418    1.8734   -2.5387 C.ar    1  UNL1        0.0530
      9 C           5.0256    2.8879   -3.2050 C.ar    1  UNL1       -0.0387
     10 H           4.6171    3.7127   -2.6201 H       1  UNL1        0.0637
     11 C           4.8620    2.8576   -4.5741 C.ar    1  UNL1       -0.0599
     12 H           4.3095    3.6475   -5.0638 H       1  UNL1        0.0618
     13 C           5.4087    1.8299   -5.3283 C.ar    1  UNL1       -0.0616
     14 H           5.2808    1.8111   -6.3996 H       1  UNL1        0.0618
     15 C           6.1200    0.8274   -4.6886 C.ar    1  UNL1       -0.0599
     16 H           6.5448    0.0183   -5.2658 H       1  UNL1        0.0618
     17 C           6.2856    0.8389   -3.3189 C.ar    1  UNL1       -0.0387
     18 H           6.8167    0.0312   -2.8366 H       1  UNL1        0.0637
     19 C           5.7340    1.8313    2.9924 C.ar    1  UNL1       -0.0396
     20 C           6.8834    2.4688    3.4899 C.ar    1  UNL1       -0.0580
     21 H           7.7284    2.6253    2.8338 H       1  UNL1        0.0620
     22 C           6.9579    2.8928    4.8017 C.ar    1  UNL1       -0.0615
     23 H           7.8557    3.3811    5.1543 H       1  UNL1        0.0618
     24 C           5.8952    2.6970    5.6698 C.ar    1  UNL1       -0.0617
     25 H           5.9537    3.0368    6.6927 H       1  UNL1        0.0618
     26 C           4.7648    2.0369    5.2126 C.ar    1  UNL1       -0.0615
     27 H           3.9412    1.8503    5.8879 H       1  UNL1        0.0618
     28 C           4.6894    1.6019    3.9052 C.ar    1  UNL1       -0.0580
     29 H           3.8174    1.0462    3.5808 H       1  UNL1        0.0620
@<TRIPOS>BOND
     1    14    13    1
     2    13    15   ar
     3    13    11   ar
     4    16    15    1
     5    12    11    1
     6    15    17   ar
     7    11     9   ar
     8    17    18    1
     9    17     8   ar
    10     9    10    1
    11     9     8   ar
    12     8     1    1
    13     1     2    1
    14     3     2    1
    15     2     4    2
    16     4     5    1
    17     4     6    1
    18     7     6    1
    19     6    19    1
    20    21    20    1
    21    19    20   ar
    22    19    28   ar
    23    20    22   ar
    24    29    28    1
    25    28    26   ar
    26    22    23    1
    27    22    24   ar
    28    26    24   ar
    29    26    27    1
    30    24    25    1
