@<TRIPOS>MOLECULE
1,11
 53 56 0 0 0
SMALL
GASTEIGER

@<TRIPOS>ATOM
      1 C           1.3256    0.6988   14.1184 C.3     1  UNL1        0.0367
      2 C           0.2186    1.6004   14.0992 C.ar    1  UNL1       -0.0280
      3 C           3.8976    3.0470   11.6453 C.3     1  UNL1        0.0409
      4 H           3.2474    3.0906   10.7492 H       1  UNL1        0.0492
      5 C          -1.1555    2.8681   15.7084 C.ar    1  UNL1       -0.0537
      6 H          -1.3951    3.1550   16.7238 H       1  UNL1        0.0624
      7 C           1.9821    0.0515   12.9245 C.3     1  UNL1       -0.0240
      8 H           1.2642   -0.5678   12.3751 H       1  UNL1        0.0290
      9 H           2.7910   -0.5972   13.2710 H       1  UNL1        0.0290
     10 C          -0.0794    2.0155   15.4550 C.ar    1  UNL1       -0.0135
     11 N           3.3620    2.1094   12.6141 N.3     1  UNL1       -0.2355
     12 C           1.7096    0.5308   15.4873 C.ar    1  UNL1       -0.0280
     13 C           0.8526    1.3507   16.3226 C.ar    1  UNL1       -0.0135
     14 C          -1.9218    3.3233   14.6576 C.ar    1  UNL1       -0.0612
     15 H          -2.7572    3.9824   14.8431 H       1  UNL1        0.0618
     16 C          -0.6091    2.0653   13.0565 C.ar    1  UNL1       -0.0571
     17 H          -0.4487    1.7298   12.0408 H       1  UNL1        0.0621
     18 C           2.5647    1.0923   11.9465 C.3     1  UNL1        0.0155
     19 H           3.1799    0.5562   11.2012 H       1  UNL1        0.0441
     20 H           1.7288    1.5580   11.3835 H       1  UNL1        0.0441
     21 C          -1.6483    2.9173   13.3446 C.ar    1  UNL1       -0.0614
     22 H          -2.2853    3.2713   12.5457 H       1  UNL1        0.0618
     23 C           0.9927    1.3233   17.7126 C.ar    1  UNL1       -0.0537
     24 H           0.3350    1.9128   18.3378 H       1  UNL1        0.0624
     25 C           2.6792   -0.2882   16.1090 C.ar    1  UNL1       -0.0571
     26 H           3.3050   -0.9438   15.5156 H       1  UNL1        0.0621
     27 C           1.9564    0.5177   18.2783 C.ar    1  UNL1       -0.0612
     28 H           2.0660    0.4790   19.3524 H       1  UNL1        0.0618
     29 C           2.7888   -0.2781   17.4790 C.ar    1  UNL1       -0.0614
     30 H           3.5221   -0.9104   17.9600 H       1  UNL1        0.0618
     31 C           4.0317    4.4822   12.2129 C.3     1  UNL1        0.0267
     32 H           4.8091    4.4546   12.9892 H       1  UNL1        0.0478
     33 N           2.7940    4.9117   12.9198 N.3     1  UNL1       -0.3039
     34 C           1.6638    5.1366   12.0119 C.3     1  UNL1       -0.0127
     35 H           0.7590    5.3143   12.5971 H       1  UNL1        0.0391
     36 H           1.4981    4.2567   11.3935 H       1  UNL1        0.0391
     37 H           1.8254    6.0046   11.3610 H       1  UNL1        0.0391
     38 C           3.0362    6.1425   13.6833 C.3     1  UNL1       -0.0127
     39 H           3.2773    6.9909   13.0301 H       1  UNL1        0.0391
     40 H           3.8546    5.9846   14.3874 H       1  UNL1        0.0391
     41 H           2.1378    6.4045   14.2437 H       1  UNL1        0.0391
     42 C           5.8412    3.5400   10.0924 C.3     1  UNL1       -0.0515
     43 H           5.1982    3.4900    9.2102 H       1  UNL1        0.0266
     44 H           6.8415    3.2216    9.7930 H       1  UNL1        0.0266
     45 C           5.8857    4.9753   10.6040 C.3     1  UNL1       -0.0515
     46 H           6.2269    5.6440    9.8109 H       1  UNL1        0.0266
     47 H           6.5969    5.0457   11.4296 H       1  UNL1        0.0266
     48 C           5.3000    2.6062   11.1679 C.3     1  UNL1       -0.0345
     49 H           5.9686    2.5913   12.0311 H       1  UNL1        0.0281
     50 H           5.2342    1.5886   10.7803 H       1  UNL1        0.0281
     51 C           4.5050    5.4136   11.0874 C.3     1  UNL1       -0.0359
     52 H           3.8078    5.3768   10.2479 H       1  UNL1        0.0281
     53 H           4.5644    6.4448   11.4387 H       1  UNL1        0.0281
@<TRIPOS>BOND
     1    43    42    1
     2    44    42    1
     3    46    45    1
     4    42    45    1
     5    42    48    1
     6    52    51    1
     7    45    51    1
     8    45    47    1
     9     4     3    1
    10    50    48    1
    11    51    53    1
    12    51    31    1
    13    48     3    1
    14    48    49    1
    15    19    18    1
    16    37    34    1
    17    20    18    1
    18    36    34    1
    19     3    31    1
    20     3    11    1
    21    18    11    1
    22    18     7    1
    23    34    35    1
    24    34    33    1
    25    17    16    1
    26    31    33    1
    27    31    32    1
    28     8     7    1
    29    22    21    1
    30    33    38    1
    31     7     9    1
    32     7     1    1
    33    39    38    1
    34    16    21   ar
    35    16     2   ar
    36    21    14   ar
    37    38    41    1
    38    38    40    1
    39     2     1    1
    40     2    10   ar
    41     1    12    1
    42    14    15    1
    43    14     5   ar
    44    10     5   ar
    45    10    13    1
    46    12    25   ar
    47    12    13   ar
    48    26    25    1
    49     5     6    1
    50    25    29   ar
    51    13    23   ar
    52    29    30    1
    53    29    27   ar
    54    23    27   ar
    55    23    24    1
    56    27    28    1
