@<TRIPOS>MOLECULE
1,2
 22 22 0 0 0
SMALL
GASTEIGER

@<TRIPOS>ATOM
      1 N          -0.1049    6.3258   14.1552 N.pl3   1  UNL1       -0.2131
      2 C          -0.4706    7.5039   14.7104 C.2     1  UNL1        0.0690
      3 C          -0.4274    8.7361   14.2107 C.2     1  UNL1       -0.0737
      4 C           0.1944    6.1537   12.7995 C.ar    1  UNL1        0.0596
      5 C          -0.7564    6.4248   11.8021 C.ar    1  UNL1       -0.0272
      6 C           1.4729    5.7004   12.4347 C.ar    1  UNL1       -0.0272
      7 C          -0.4125    6.2327   10.4710 C.ar    1  UNL1       -0.0570
      8 C           1.7847    5.5316   11.0953 C.ar    1  UNL1       -0.0570
      9 C           0.8476    5.7942   10.1111 C.ar    1  UNL1       -0.0611
     10 C          -2.1315    6.9035   12.1574 C.3     1  UNL1       -0.0379
     11 C           2.4805    5.4201   13.5061 C.3     1  UNL1       -0.0379
     12 H          -0.7467    9.5874   14.7869 H       1  UNL1        0.0554
     13 H          -0.0338    8.9449   13.2232 H       1  UNL1        0.0554
     14 H          -1.1490    6.4353    9.7058 H       1  UNL1        0.0621
     15 H           1.0991    5.6567    9.0701 H       1  UNL1        0.0618
     16 H           2.7724    5.1898   10.8205 H       1  UNL1        0.0621
     17 H          -2.4687    6.4423   13.0838 H       1  UNL1        0.0278
     18 H          -2.1288    7.9830   12.3110 H       1  UNL1        0.0278
     19 H          -2.8337    6.6717   11.3583 H       1  UNL1        0.0278
     20 H           2.0927    4.6601   14.1835 H       1  UNL1        0.0278
     21 H           3.4178    5.0775   13.0744 H       1  UNL1        0.0278
     22 H           2.6644    6.3221   14.0891 H       1  UNL1        0.0278
@<TRIPOS>BOND
     1    15     9    1
     2    14     7    1
     3     9     7   ar
     4     9     8   ar
     5     7     5   ar
     6    16     8    1
     7     8     6   ar
     8    19    10    1
     9     5    10    1
    10     5     4   ar
    11    10    18    1
    12    10    17    1
    13     6     4   ar
    14     6    11    1
    15     4     1    1
    16    21    11    1
    17    13     3    1
    18    11    22    1
    19    11    20    1
    20     1     2    1
    21     3     2    2
    22     3    12    1
