@<TRIPOS>MOLECULE
1,2
 57 59 0 0 0
SMALL
GASTEIGER

@<TRIPOS>ATOM
      1 C           3.4016    4.5612    3.6633 C.3     1  UNL1        0.0000
      2 N           2.2368    4.1488    3.8868 N.3     1  UNL1        0.0000
      3 C           1.1410    3.4585    3.2675 C.3     1  UNL1        0.0000
      4 H           1.4962    2.8907    2.3953 H       1  UNL1        0.0000
      5 C           0.1121    4.4993    2.8191 C.3     1  UNL1        0.0000
      6 H          -0.1764    5.1048    3.6758 H       1  UNL1        0.0000
      7 H          -0.7669    4.0115    2.4062 H       1  UNL1        0.0000
      8 H           0.5368    5.1569    2.0657 H       1  UNL1        0.0000
      9 C           0.5200    2.5063    4.2876 C.3     1  UNL1        0.0000
     10 H           1.2395    1.7510    4.5915 H       1  UNL1        0.0000
     11 H          -0.3498    2.0107    3.8644 H       1  UNL1        0.0000
     12 H           0.2164    3.0734    5.1645 H       1  UNL1        0.0000
     13 N           4.3692    4.2703    2.7803 N.3     1  UNL1        0.0000
     14 C           5.5403    5.1505    2.7627 C.3     1  UNL1        0.0000
     15 H           6.2253    4.7392    2.0152 H       1  UNL1        0.0000
     16 C           5.1319    6.5572    2.3420 C.3     1  UNL1        0.0000
     17 H           4.6552    6.5373    1.3648 H       1  UNL1        0.0000
     18 H           6.0052    7.2012    2.2902 H       1  UNL1        0.0000
     19 H           4.4321    6.9636    3.0693 H       1  UNL1        0.0000
     20 C           6.2316    5.1619    4.1200 C.3     1  UNL1        0.0000
     21 H           5.5446    5.5572    4.8682 H       1  UNL1        0.0000
     22 H           7.1185    5.7881    4.0839 H       1  UNL1        0.0000
     23 H           6.5289    4.1537    4.3999 H       1  UNL1        0.0000
     24 SI          4.3467    2.7643    1.8672 Si      1  UNL1        0.0000
     25 C           6.1190    2.3653    1.3312 C.ar    1  UNL1        0.0000
     26 C           6.9833    1.6638    2.1668 C.ar    1  UNL1        0.0000
     27 H           6.6323    1.3332    3.1341 H       1  UNL1        0.0000
     28 C           8.2787    1.3773    1.7756 C.ar    1  UNL1        0.0000
     29 H           8.9348    0.8322    2.4388 H       1  UNL1        0.0000
     30 C           8.7336    1.7862    0.5333 C.ar    1  UNL1        0.0000
     31 H           9.7445    1.5631    0.2252 H       1  UNL1        0.0000
     32 C           7.8851    2.4790   -0.3140 C.ar    1  UNL1        0.0000
     33 H           8.2330    2.7977   -1.2860 H       1  UNL1        0.0000
     34 C           6.5913    2.7631    0.0834 C.ar    1  UNL1        0.0000
     35 H           5.9328    3.3018   -0.5833 H       1  UNL1        0.0000
     36 C           3.7611    1.4167    3.0617 C.ar    1  UNL1        0.0000
     37 C           4.0844    1.4987    4.4145 C.ar    1  UNL1        0.0000
     38 H           4.6288    2.3582    4.7781 H       1  UNL1        0.0000
     39 C           3.7054    0.5082    5.3020 C.ar    1  UNL1        0.0000
     40 H           3.9668    0.5911    6.3473 H       1  UNL1        0.0000
     41 C           2.9891   -0.5884    4.8513 C.ar    1  UNL1        0.0000
     42 H           2.6907   -1.3634    5.5422 H       1  UNL1        0.0000
     43 C           2.6515   -0.6824    3.5115 C.ar    1  UNL1        0.0000
     44 H           2.0867   -1.5318    3.1554 H       1  UNL1        0.0000
     45 C           3.0363    0.3107    2.6285 C.ar    1  UNL1        0.0000
     46 H           2.7632    0.2316    1.5863 H       1  UNL1        0.0000
     47 C           3.2786    2.9843    0.3204 C.ar    1  UNL1        0.0000
     48 C           3.2165    1.9836   -0.6465 C.ar    1  UNL1        0.0000
     49 H           3.7895    1.0778   -0.5063 H       1  UNL1        0.0000
     50 C           2.4478    2.1385   -1.7856 C.ar    1  UNL1        0.0000
     51 H           2.4116    1.3502   -2.5237 H       1  UNL1        0.0000
     52 C           1.7277    3.3054   -1.9821 C.ar    1  UNL1        0.0000
     53 H           1.1263    3.4279   -2.8709 H       1  UNL1        0.0000
     54 C           1.7885    4.3169   -1.0383 C.ar    1  UNL1        0.0000
     55 H           1.2363    5.2330   -1.1904 H       1  UNL1        0.0000
     56 C           2.5587    4.1558    0.0989 C.ar    1  UNL1        0.0000
     57 H           2.6080    4.9494    0.8309 H       1  UNL1        0.0000
@<TRIPOS>BOND
     1    53    52    1
     2    51    50    1
     3    52    50   ar
     4    52    54   ar
     5    50    48   ar
     6    33    32    1
     7    55    54    1
     8    54    56   ar
     9    48    49    1
    10    48    47   ar
    11    35    34    1
    12    32    34   ar
    13    32    30   ar
    14    34    25   ar
    15    56    47   ar
    16    56    57    1
    17    31    30    1
    18    47    24    1
    19    30    28   ar
    20    25    24    1
    21    25    26   ar
    22    17    16    1
    23    46    45    1
    24    28    26   ar
    25    28    29    1
    26    24    13    1
    27    24    36    1
    28    15    14    1
    29     8     5    1
    30    26    27    1
    31    18    16    1
    32    16    14    1
    33    16    19    1
    34     4     3    1
    35     7     5    1
    36    45    36   ar
    37    45    43   ar
    38    14    13    1
    39    14    20    1
    40    13     1    1
    41     5     3    1
    42     5     6    1
    43    36    37   ar
    44    44    43    1
    45     3     2    1
    46     3     9    1
    47    43    41   ar
    48     1     2    1
    49    11     9    1
    50    22    20    1
    51    20    23    1
    52    20    21    1
    53     9    10    1
    54     9    12    1
    55    37    38    1
    56    37    39   ar
    57    41    39   ar
    58    41    42    1
    59    39    40    1
