@<TRIPOS>MOLECULE
2,7
 60 60 0 0 0
SMALL
GASTEIGER

@<TRIPOS>ATOM
      1 SI          7.6766    6.5923   13.6957 Si      1  UNL1        0.0000
      2 N           6.8884    7.5655   14.9653 N.pl3   1  UNL1        0.0000
      3 C           7.5955    8.0958   16.0338 C.ar    1  UNL1        0.0000
      4 C           7.5206    7.4042   17.2746 C.ar    1  UNL1        0.0000
      5 C           6.6773    6.1539   17.2915 C.3     1  UNL1        0.0000
      6 H           7.0777    5.4879   16.5163 H       1  UNL1        0.0000
      7 C           5.2637    6.5503   16.9006 C.3     1  UNL1        0.0000
      8 H           4.7976    6.9902   17.7879 H       1  UNL1        0.0000
      9 H           4.7013    5.6570   16.6089 H       1  UNL1        0.0000
     10 C           6.6962    5.3926   18.6188 C.3     1  UNL1        0.0000
     11 H           7.7062    5.0791   18.8710 H       1  UNL1        0.0000
     12 H           6.0785    4.5016   18.5310 H       1  UNL1        0.0000
     13 H           6.3006    6.0036   19.4264 H       1  UNL1        0.0000
     14 C           8.2084    7.8829   18.3758 C.ar    1  UNL1        0.0000
     15 H           8.1548    7.3615   19.3175 H       1  UNL1        0.0000
     16 C           8.9835    9.0266   18.2757 C.ar    1  UNL1        0.0000
     17 H           9.5143    9.3962   19.1390 H       1  UNL1        0.0000
     18 C           9.0958    9.6795   17.0620 C.ar    1  UNL1        0.0000
     19 H           9.7244   10.5530   16.9940 H       1  UNL1        0.0000
     20 C           8.4403    9.2257   15.9257 C.ar    1  UNL1        0.0000
     21 C           8.6700    9.9331   14.6106 C.3     1  UNL1        0.0000
     22 H           8.2786    9.2930   13.8195 H       1  UNL1        0.0000
     23 C           7.9215   11.2681   14.5604 C.3     1  UNL1        0.0000
     24 H           6.8475   11.1037   14.6222 H       1  UNL1        0.0000
     25 H           8.1370   11.7781   13.6245 H       1  UNL1        0.0000
     26 H           8.2285   11.9137   15.3805 H       1  UNL1        0.0000
     27 C          10.1582   10.1723   14.3386 C.3     1  UNL1        0.0000
     28 H          10.5561   10.9571   14.9757 H       1  UNL1        0.0000
     29 H          10.2956   10.4810   13.3052 H       1  UNL1        0.0000
     30 H          10.7390    9.2691   14.5064 H       1  UNL1        0.0000
     31 C           7.5674    7.5809   12.0258 C.3     1  UNL1        0.0000
     32 H           8.4643    8.2073   11.9610 H       1  UNL1        0.0000
     33 C           6.3552    8.5100   11.9619 C.3     1  UNL1        0.0000
     34 H           5.4364    7.9275   11.9110 H       1  UNL1        0.0000
     35 H           6.4082    9.1332   11.0703 H       1  UNL1        0.0000
     36 H           6.3177    9.1610   12.8359 H       1  UNL1        0.0000
     37 C           7.5752    6.6894   10.7848 C.3     1  UNL1        0.0000
     38 H           8.4055    5.9912   10.8015 H       1  UNL1        0.0000
     39 H           7.6673    7.3017    9.8893 H       1  UNL1        0.0000
     40 H           6.6493    6.1268   10.7044 H       1  UNL1        0.0000
     41 C           9.5258    6.2914   14.1500 C.3     1  UNL1        0.0000
     42 H           9.9325    7.2486   14.4903 H       1  UNL1        0.0000
     43 C          10.3569    5.8475   12.9468 C.3     1  UNL1        0.0000
     44 H          10.0061    4.8938   12.5625 H       1  UNL1        0.0000
     45 H          11.3988    5.7277   13.2377 H       1  UNL1        0.0000
     46 H          10.3154    6.5804   12.1469 H       1  UNL1        0.0000
     47 C           9.7166    5.3029   15.3000 C.3     1  UNL1        0.0000
     48 H           9.2807    5.6884   16.2173 H       1  UNL1        0.0000
     49 H          10.7787    5.1438   15.4776 H       1  UNL1        0.0000
     50 H           9.2684    4.3395   15.0719 H       1  UNL1        0.0000
     51 C           6.5804    4.9994   13.7211 C.3     1  UNL1        0.0000
     52 H           6.6031    4.5927   14.7378 H       1  UNL1        0.0000
     53 C           7.0392    3.8773   12.7927 C.3     1  UNL1        0.0000
     54 H           7.0054    4.1808   11.7522 H       1  UNL1        0.0000
     55 H           6.3940    3.0082   12.9106 H       1  UNL1        0.0000
     56 H           8.0552    3.5733   13.0259 H       1  UNL1        0.0000
     57 C           5.1319    5.3816   13.4281 C.3     1  UNL1        0.0000
     58 H           4.8481    6.2356   14.0681 H       1  UNL1        0.0000
     59 H           4.4640    4.5441   13.6257 H       1  UNL1        0.0000
     60 H           5.0136    5.6648   12.3846 H       1  UNL1        0.0000
@<TRIPOS>BOND
     1    39    37    1
     2    40    37    1
     3    37    38    1
     4    37    31    1
     5    35    33    1
     6    54    53    1
     7    34    33    1
     8    32    31    1
     9    33    31    1
    10    33    36    1
    11    31     1    1
    12    46    43    1
    13    60    57    1
    14    44    43    1
    15    53    55    1
    16    53    56    1
    17    53    51    1
    18    43    45    1
    19    43    41    1
    20    29    27    1
    21    57    59    1
    22    57    51    1
    23    57    58    1
    24    25    23    1
    25     1    51    1
    26     1    41    1
    27     1     2    1
    28    51    52    1
    29    22    21    1
    30    41    42    1
    31    41    47    1
    32    27    30    1
    33    27    21    1
    34    27    28    1
    35    23    21    1
    36    23    24    1
    37    23    26    1
    38    21    20    1
    39     2     3    1
    40    50    47    1
    41    47    49    1
    42    47    48    1
    43    20     3   ar
    44    20    18   ar
    45     3     4   ar
    46     6     5    1
    47     9     7    1
    48     7     5    1
    49     7     8    1
    50    19    18    1
    51    18    16   ar
    52     4     5    1
    53     4    14   ar
    54     5    10    1
    55    16    14   ar
    56    16    17    1
    57    14    15    1
    58    12    10    1
    59    10    11    1
    60    10    13    1
