@<TRIPOS>MOLECULE
3,9
 37 37 0 0 0
SMALL
GASTEIGER

@<TRIPOS>ATOM
      1 SI         10.1227    4.6778    3.9904 Si      1  UNL1        0.0000
      2 SI          9.8157    7.4763    2.4315 Si      1  UNL1        0.0000
      3 C           9.5537    6.4578    3.9826 C.3     1  UNL1        0.0000
      4 C           9.5724    7.2600    5.1540 C.3     1  UNL1        0.0000
      5 C          10.3002    7.1419    6.3456 C.2     1  UNL1        0.0000
      6 C          10.0951    8.0659    7.3441 C.2     1  UNL1        0.0000
      7 C           9.1613    9.0881    7.1656 C.2     1  UNL1        0.0000
      8 C           8.4481    9.1135    5.9844 C.2     1  UNL1        0.0000
      9 N           8.6630    8.2403    5.0291 N.pl3   1  UNL1        0.0000
     10 C           8.8420    3.4938    3.2081 C.3     1  UNL1        0.0000
     11 C          10.5600    3.9036    5.6929 C.3     1  UNL1        0.0000
     12 C          11.7279    4.4951    2.9645 C.3     1  UNL1        0.0000
     13 C           9.3851    6.5131    0.8462 C.3     1  UNL1        0.0000
     14 C           8.6651    8.9639    2.4697 C.3     1  UNL1        0.0000
     15 C          11.6196    8.1251    2.3171 C.3     1  UNL1        0.0000
     16 H          11.0177    6.3493    6.4577 H       1  UNL1        0.0000
     17 H          10.6568    8.0068    8.2653 H       1  UNL1        0.0000
     18 H           8.9965    9.8332    7.9262 H       1  UNL1        0.0000
     19 H           7.6938    9.8509    5.7791 H       1  UNL1        0.0000
     20 H           8.5771    3.7953    2.2030 H       1  UNL1        0.0000
     21 H           7.9248    3.4368    3.7828 H       1  UNL1        0.0000
     22 H           9.2504    2.4894    3.1468 H       1  UNL1        0.0000
     23 H          11.5903    4.1127    5.9639 H       1  UNL1        0.0000
     24 H          10.4551    2.8227    5.6524 H       1  UNL1        0.0000
     25 H           9.9307    4.2593    6.5011 H       1  UNL1        0.0000
     26 H          11.5816    4.8020    1.9357 H       1  UNL1        0.0000
     27 H          12.0710    3.4651    2.9546 H       1  UNL1        0.0000
     28 H          12.5286    5.1010    3.3755 H       1  UNL1        0.0000
     29 H           9.4541    5.4436    0.9877 H       1  UNL1        0.0000
     30 H          10.0634    6.7766    0.0435 H       1  UNL1        0.0000
     31 H           8.3804    6.7403    0.5134 H       1  UNL1        0.0000
     32 H           7.6635    8.6663    2.8183 H       1  UNL1        0.0000
     33 H           8.5156    9.4198    1.5010 H       1  UNL1        0.0000
     34 H           9.0189    9.7140    3.1602 H       1  UNL1        0.0000
     35 H          12.3233    7.3241    2.1234 H       1  UNL1        0.0000
     36 H          11.9140    8.6017    3.2468 H       1  UNL1        0.0000
     37 H          11.7280    8.8569    1.5228 H       1  UNL1        0.0000
@<TRIPOS>BOND
     1    30    13    1
     2    31    13    1
     3    13    29    1
     4    13     2    1
     5    33    14    1
     6    37    15    1
     7    26    12    1
     8    35    15    1
     9    20    10    1
    10    15     2    1
    11    15    36    1
    12     2    14    1
    13     2     3    1
    14    14    32    1
    15    14    34    1
    16    27    12    1
    17    12    28    1
    18    12     1    1
    19    22    10    1
    20    10    21    1
    21    10     1    1
    22     3     1    1
    23     3     4    1
    24     1    11    1
    25     9     4    1
    26     9     8    1
    27     4     5    1
    28    24    11    1
    29    11    23    1
    30    11    25    1
    31    19     8    1
    32     8     7    2
    33     5    16    1
    34     5     6    2
    35     7     6    1
    36     7    18    1
    37     6    17    1
