@<TRIPOS>MOLECULE
3,9
 37 37 0 0 0
SMALL
GASTEIGER

@<TRIPOS>ATOM
      1 SI          5.5031    7.2936    2.7031 Si      1  UNL1        0.0000
      2 SI          5.4075   10.0168    4.4156 Si      1  UNL1        0.0000
      3 C           5.9634    8.2401    4.2537 C.3     1  UNL1        0.0000
      4 C           6.0902    7.3838    5.3794 C.3     1  UNL1        0.0000
      5 C           5.5185    7.4419    6.6572 C.2     1  UNL1        0.0000
      6 C           5.8440    6.4706    7.5757 C.2     1  UNL1        0.0000
      7 C           6.7441    5.4606    7.2316 C.2     1  UNL1        0.0000
      8 C           7.3036    5.4948    5.9705 C.2     1  UNL1        0.0000
      9 N           6.9739    6.4136    5.0941 N.pl3   1  UNL1        0.0000
     10 C           5.7341    8.3314    1.1231 C.3     1  UNL1        0.0000
     11 C           6.6439    5.8082    2.5268 C.3     1  UNL1        0.0000
     12 C           3.6965    6.6480    2.7886 C.3     1  UNL1        0.0000
     13 C           5.1843   10.7065    6.1941 C.3     1  UNL1        0.0000
     14 C           6.5873   11.2406    3.5410 C.3     1  UNL1        0.0000
     15 C           3.6904   10.2473    3.6027 C.3     1  UNL1        0.0000
     16 H           4.8235    8.2262    6.8972 H       1  UNL1        0.0000
     17 H           5.4026    6.4830    8.5619 H       1  UNL1        0.0000
     18 H           6.9999    4.6793    7.9282 H       1  UNL1        0.0000
     19 H           8.0233    4.7702    5.6360 H       1  UNL1        0.0000
     20 H           5.7039    9.3929    1.3253 H       1  UNL1        0.0000
     21 H           4.9497    8.1169    0.4071 H       1  UNL1        0.0000
     22 H           6.6810    8.1104    0.6473 H       1  UNL1        0.0000
     23 H           7.6829    6.0928    2.7571 H       1  UNL1        0.0000
     24 H           6.6666    5.3962    1.5277 H       1  UNL1        0.0000
     25 H           6.3792    5.0270    3.2228 H       1  UNL1        0.0000
     26 H           2.9778    7.4568    2.7273 H       1  UNL1        0.0000
     27 H           3.5215    6.1248    3.7233 H       1  UNL1        0.0000
     28 H           3.4833    5.9570    1.9791 H       1  UNL1        0.0000
     29 H           5.9117   10.3203    6.8992 H       1  UNL1        0.0000
     30 H           4.1972   10.4746    6.5820 H       1  UNL1        0.0000
     31 H           5.2785   11.7891    6.1920 H       1  UNL1        0.0000
     32 H           7.5702   11.2672    3.9969 H       1  UNL1        0.0000
     33 H           6.1811   12.2469    3.5847 H       1  UNL1        0.0000
     34 H           6.7209   10.9930    2.4958 H       1  UNL1        0.0000
     35 H           3.7076    9.9859    2.5514 H       1  UNL1        0.0000
     36 H           3.3562   11.2774    3.6798 H       1  UNL1        0.0000
     37 H           2.9415    9.6254    4.0818 H       1  UNL1        0.0000
@<TRIPOS>BOND
     1    21    10    1
     2    22    10    1
     3    10    20    1
     4    10     1    1
     5    24    11    1
     6    28    12    1
     7    34    14    1
     8    11     1    1
     9    11    23    1
    10    11    25    1
    11    35    15    1
    12     1    12    1
    13     1     3    1
    14    26    12    1
    15    12    27    1
    16    14    33    1
    17    14    32    1
    18    14     2    1
    19    15    36    1
    20    15    37    1
    21    15     2    1
    22     3     2    1
    23     3     4    1
    24     2    13    1
    25     9     4    1
    26     9     8    1
    27     4     5    1
    28    19     8    1
    29     8     7    2
    30    31    13    1
    31    13    30    1
    32    13    29    1
    33     5    16    1
    34     5     6    2
    35     7     6    1
    36     7    18    1
    37     6    17    1
