@<TRIPOS>MOLECULE
2,3
 49 51 0 0 0
SMALL
GASTEIGER

@<TRIPOS>ATOM
      1 SI          9.9702    9.6460    3.2396 Si      1  UNL1        0.0000
      2 N           7.4348   10.2423    4.2280 N.pl3   1  UNL1        0.0000
      3 C           8.2313   10.4460    3.2423 C.3     1  UNL1        0.0000
      4 C           7.6019    9.5251    5.4167 C.ar    1  UNL1        0.0000
      5 C           6.7794    8.4243    5.6538 C.ar    1  UNL1        0.0000
      6 C           6.9089    7.7113    6.8284 C.ar    1  UNL1        0.0000
      7 C           7.8325    8.1015    7.7855 C.ar    1  UNL1        0.0000
      8 C           8.6267    9.2130    7.5641 C.ar    1  UNL1        0.0000
      9 C           8.5207    9.9248    6.3842 C.ar    1  UNL1        0.0000
     10 C           9.8975    7.9450    4.0895 C.ar    1  UNL1        0.0000
     11 C          10.6066    7.6719    5.2569 C.ar    1  UNL1        0.0000
     12 C          10.4547    6.4705    5.9238 C.ar    1  UNL1        0.0000
     13 C           9.5813    5.5115    5.4411 C.ar    1  UNL1        0.0000
     14 C           8.8601    5.7664    4.2876 C.ar    1  UNL1        0.0000
     15 C           9.0158    6.9702    3.6266 C.ar    1  UNL1        0.0000
     16 C          10.5097    9.6043    1.3778 C.3     1  UNL1        0.0000
     17 C          10.2092   10.9700    0.7530 C.3     1  UNL1        0.0000
     18 C           9.7590    8.5265    0.5968 C.3     1  UNL1        0.0000
     19 C          12.0068    9.3268    1.2565 C.3     1  UNL1        0.0000
     20 C          11.1786   10.7857    4.1679 C.ar    1  UNL1        0.0000
     21 C          12.4898   10.3979    4.4316 C.ar    1  UNL1        0.0000
     22 C          13.3627   11.2345    5.1041 C.ar    1  UNL1        0.0000
     23 C          12.9421   12.4851    5.5244 C.ar    1  UNL1        0.0000
     24 C          11.6430   12.8902    5.2696 C.ar    1  UNL1        0.0000
     25 C          10.7747   12.0457    4.6011 C.ar    1  UNL1        0.0000
     26 H           6.0545    8.1401    4.9017 H       1  UNL1        0.0000
     27 H           6.2828    6.8492    7.0024 H       1  UNL1        0.0000
     28 H           7.9255    7.5444    8.7053 H       1  UNL1        0.0000
     29 H           9.3386    9.5286    8.3125 H       1  UNL1        0.0000
     30 H           9.1361   10.7948    6.2080 H       1  UNL1        0.0000
     31 H          11.2794    8.4159    5.6562 H       1  UNL1        0.0000
     32 H          11.0151    6.2842    6.8286 H       1  UNL1        0.0000
     33 H           9.4580    4.5745    5.9638 H       1  UNL1        0.0000
     34 H           8.1695    5.0279    3.9064 H       1  UNL1        0.0000
     35 H           8.4345    7.1590    2.7364 H       1  UNL1        0.0000
     36 H          10.4954   10.9760   -0.2984 H       1  UNL1        0.0000
     37 H           9.1460   11.2045    0.8278 H       1  UNL1        0.0000
     38 H          10.7719   11.7515    1.2596 H       1  UNL1        0.0000
     39 H           8.6838    8.6656    0.6776 H       1  UNL1        0.0000
     40 H          10.0137    7.5368    0.9685 H       1  UNL1        0.0000
     41 H          10.0284    8.5676   -0.4588 H       1  UNL1        0.0000
     42 H          12.2616    8.3765    1.7207 H       1  UNL1        0.0000
     43 H          12.5863   10.1121    1.7349 H       1  UNL1        0.0000
     44 H          12.3002    9.2804    0.2079 H       1  UNL1        0.0000
     45 H          12.8324    9.4268    4.1067 H       1  UNL1        0.0000
     46 H          14.3748   10.9108    5.3008 H       1  UNL1        0.0000
     47 H          13.6230   13.1399    6.0482 H       1  UNL1        0.0000
     48 H          11.3060   13.8646    5.5931 H       1  UNL1        0.0000
     49 H           9.7587   12.3660    4.4121 H       1  UNL1        0.0000
@<TRIPOS>BOND
     1    41    18    1
     2    36    17    1
     3    44    19    1
     4    18    39    1
     5    18    40    1
     6    18    16    1
     7    17    37    1
     8    17    38    1
     9    17    16    1
    10    19    16    1
    11    19    42    1
    12    19    43    1
    13    16     1    1
    14    35    15    1
    15     1     3    1
    16     1    10    1
    17     1    20    1
    18     3     2    1
    19    15    10   ar
    20    15    14   ar
    21    34    14    1
    22    10    11   ar
    23    45    21    1
    24    20    21   ar
    25    20    25   ar
    26     2     4    1
    27    14    13   ar
    28    49    25    1
    29    21    22   ar
    30    25    24   ar
    31    26     5    1
    32    22    46    1
    33    22    23   ar
    34    11    31    1
    35    11    12   ar
    36    24    23   ar
    37    24    48    1
    38     4     5   ar
    39     4     9   ar
    40    13    12   ar
    41    13    33    1
    42    23    47    1
    43     5     6   ar
    44    12    32    1
    45    30     9    1
    46     9     8   ar
    47     6    27    1
    48     6     7   ar
    49     8     7   ar
    50     8    29    1
    51     7    28    1
