@<TRIPOS>MOLECULE
1,2
 12 11 0 0 0
SMALL
GASTEIGER

@<TRIPOS>ATOM
      1 N          11.4081   14.1316    9.1568 N.3     1  UNL1       -0.3300
      2 C           9.7586   12.0436    8.9658 C.3     1  UNL1       -0.0519
      3 C          10.6487   12.3450    7.7647 C.3     1  UNL1       -0.0406
      4 C          10.9120   13.8430    7.8051 C.3     1  UNL1       -0.0069
      5 H          11.2666   15.1132    9.3930 H       1  UNL1        0.1182
      6 H          12.4123   13.9584    9.1735 H       1  UNL1        0.1182
      7 H           8.8086   12.5605    8.7784 H       1  UNL1        0.0266
      8 H           9.5385   10.9707    8.9832 H       1  UNL1        0.0266
      9 H          11.5927   11.7997    7.8411 H       1  UNL1        0.0277
     10 H          10.1712   12.0675    6.8183 H       1  UNL1        0.0277
     11 H          11.6272   14.1631    7.0364 H       1  UNL1        0.0422
     12 H           9.9715   14.3798    7.6455 H       1  UNL1        0.0422
@<TRIPOS>BOND
     1    10     3    1
     2    11     4    1
     3    12     4    1
     4     3     4    1
     5     3     9    1
     6     3     2    1
     7     4     1    1
     8     7     2    1
     9     2     8    1
    10     1     6    1
    11     1     5    1
