@<TRIPOS>MOLECULE
1,2
 22 22 0 0 0
SMALL
GASTEIGER

@<TRIPOS>ATOM
      1 N          -3.1177    3.0856   11.9232 N.pl3   1  UNL1       -0.3358
      2 C          -1.1733    1.1852   11.0829 C.3     1  UNL1       -0.0219
      3 H          -2.0753    0.9087   10.5151 H       1  UNL1        0.0317
      4 H          -0.4505    0.3684   10.9618 H       1  UNL1        0.0317
      5 C          -1.4852    1.3567   12.5099 C.ar    1  UNL1       -0.0261
      6 C          -0.7913    0.6495   13.5000 C.ar    1  UNL1       -0.0568
      7 H          -0.0186   -0.0457   13.1973 H       1  UNL1        0.0621
      8 C          -1.0642    0.8103   14.8424 C.ar    1  UNL1       -0.0614
      9 H          -0.5064    0.2486   15.5771 H       1  UNL1        0.0618
     10 C          -2.0622    1.6793   15.2430 C.ar    1  UNL1       -0.0600
     11 H          -2.2973    1.8013   16.2891 H       1  UNL1        0.0618
     12 C          -2.7605    2.4049   14.2902 C.ar    1  UNL1       -0.0404
     13 H          -3.5261    3.0876   14.6254 H       1  UNL1        0.0636
     14 C          -2.4783    2.2712   12.9418 C.ar    1  UNL1        0.0324
     15 C          -3.6217    4.3626   12.4351 C.3     1  UNL1        0.0004
     16 H          -4.5174    4.2350   13.0581 H       1  UNL1        0.0428
     17 H          -3.8924    4.9931   11.5871 H       1  UNL1        0.0428
     18 H          -2.8494    4.8526   13.0239 H       1  UNL1        0.0428
     19 C          -4.2541    2.3747   11.3236 C.3     1  UNL1        0.0004
     20 H          -3.9709    1.3673   11.0296 H       1  UNL1        0.0428
     21 H          -4.5979    2.9181   10.4423 H       1  UNL1        0.0428
     22 H          -5.0856    2.2947   12.0379 H       1  UNL1        0.0428
@<TRIPOS>BOND
     1    21    19    1
     2     3     2    1
     3     4     2    1
     4    20    19    1
     5     2     5    1
     6    19     1    1
     7    19    22    1
     8    17    15    1
     9     1    15    1
    10     1    14    1
    11    15    18    1
    12    15    16    1
    13     5    14   ar
    14     5     6   ar
    15    14    12   ar
    16     7     6    1
    17     6     8   ar
    18    12    13    1
    19    12    10   ar
    20     8    10   ar
    21     8     9    1
    22    10    11    1
