@<TRIPOS>MOLECULE
1,2
 22 22 0 0 0
SMALL
GASTEIGER

@<TRIPOS>ATOM
      1 N           1.6623    3.1841   11.2076 N.pl3   1  UNL1       -0.3358
      2 C          -0.3000    5.1891   11.6456 C.3     1  UNL1       -0.0219
      3 H           0.4622    5.7309   11.0620 H       1  UNL1        0.0317
      4 H          -0.9906    5.9515   12.0318 H       1  UNL1        0.0317
      5 C           0.3214    4.4872   12.7847 C.ar    1  UNL1       -0.0261
      6 C          -0.0746    4.7351   14.1041 C.ar    1  UNL1       -0.0568
      7 H          -0.8423    5.4762   14.2864 H       1  UNL1        0.0621
      8 C           0.4872    4.0700   15.1743 C.ar    1  UNL1       -0.0614
      9 H           0.1540    4.2866   16.1785 H       1  UNL1        0.0618
     10 C           1.4878    3.1403   14.9598 C.ar    1  UNL1       -0.0600
     11 H           1.9476    2.6269   15.7902 H       1  UNL1        0.0618
     12 C           1.8982    2.8639   13.6653 C.ar    1  UNL1       -0.0404
     13 H           2.6739    2.1283   13.5166 H       1  UNL1        0.0636
     14 C           1.3210    3.5049   12.5830 C.ar    1  UNL1        0.0324
     15 C           2.6883    4.1138   10.7176 C.3     1  UNL1        0.0004
     16 H           2.3854    5.1458   10.8747 H       1  UNL1        0.0428
     17 H           2.8456    3.9431    9.6526 H       1  UNL1        0.0428
     18 H           3.6383    3.9589   11.2475 H       1  UNL1        0.0428
     19 C           2.1910    1.8261   11.0393 C.3     1  UNL1        0.0004
     20 H           3.2268    1.7410   11.3946 H       1  UNL1        0.0428
     21 H           2.1790    1.5766    9.9768 H       1  UNL1        0.0428
     22 H           1.5742    1.1188   11.5884 H       1  UNL1        0.0428
@<TRIPOS>BOND
     1    17    15    1
     2    21    19    1
     3    15    16    1
     4    15     1    1
     5    15    18    1
     6    19     1    1
     7    19    20    1
     8    19    22    1
     9     3     2    1
    10     1    14    1
    11     2     4    1
    12     2     5    1
    13    14     5   ar
    14    14    12   ar
    15     5     6   ar
    16    13    12    1
    17    12    10   ar
    18     6     7    1
    19     6     8   ar
    20    10     8   ar
    21    10    11    1
    22     8     9    1
