@<TRIPOS>MOLECULE
4,19
 36 37 0 0 0
SMALL
GASTEIGER

@<TRIPOS>ATOM
      1 SI         12.1394   10.4442    9.9678 Si      1  UNL1        0.0000
      2 CL         14.8236    3.9303    9.6699 Cl      1  UNL1        0.0000
      3 N          11.2607   11.5336   11.1027 N.pl3   1  UNL1        0.0000
      4 N          11.9123    8.9574   10.7850 N.pl3   1  UNL1        0.0000
      5 C          12.6092    7.8160   10.5044 C.ar    1  UNL1        0.0000
      6 C          11.4348   10.4888    8.1895 C.3     1  UNL1        0.0000
      7 H          12.0671    9.8753    7.5557 H       1  UNL1        0.0000
      8 H          11.4212   11.4840    7.7607 H       1  UNL1        0.0000
      9 H          10.4339   10.0758    8.1264 H       1  UNL1        0.0000
     10 C          10.0313   12.1286   10.9550 C.2     1  UNL1        0.0000
     11 C          10.4991   12.0600   13.1502 C.3     1  UNL1        0.0000
     12 H          10.4676   12.2493   14.2093 H       1  UNL1        0.0000
     13 C          14.1259    6.4935    9.1343 C.ar    1  UNL1        0.0000
     14 H          14.7620    6.4097    8.2663 H       1  UNL1        0.0000
     15 C          13.9144   11.1576    9.8452 C.3     1  UNL1        0.0000
     16 H          13.9628   12.1991   10.1479 H       1  UNL1        0.0000
     17 H          14.2834   11.0983    8.8262 H       1  UNL1        0.0000
     18 H          14.6048   10.5977   10.4677 H       1  UNL1        0.0000
     19 C          11.5507   11.5071   12.4544 C.3     1  UNL1        0.0000
     20 C          13.9865    5.4156    9.9940 C.ar    1  UNL1        0.0000
     21 C           9.5356   12.4593   12.1889 C.2     1  UNL1        0.0000
     22 H           8.6168   12.9823   12.3816 H       1  UNL1        0.0000
     23 C          13.4531    7.6683    9.3889 C.ar    1  UNL1        0.0000
     24 H          13.5735    8.5015    8.7169 H       1  UNL1        0.0000
     25 C          12.5146    6.7054   11.3649 C.ar    1  UNL1        0.0000
     26 H          11.9077    6.7935   12.2653 H       1  UNL1        0.0000
     27 C           9.3989   12.4265    9.6405 C.3     1  UNL1        0.0000
     28 H           8.5389   13.0725    9.8030 H       1  UNL1        0.0000
     29 H           9.0588   11.5231    9.1389 H       1  UNL1        0.0000
     30 H          10.0983   12.9405    8.9849 H       1  UNL1        0.0000
     31 C          13.1852    5.5252   11.1176 C.ar    1  UNL1        0.0000
     32 H          13.0935    4.6909   11.7972 H       1  UNL1        0.0000
     33 C          12.8776   11.1014   13.0111 C.3     1  UNL1        0.0000
     34 H          12.8246   11.1208   14.0981 H       1  UNL1        0.0000
     35 H          13.6462   11.8050   12.6911 H       1  UNL1        0.0000
     36 H          13.1770   10.1062   12.6832 H       1  UNL1        0.0000
@<TRIPOS>BOND
     1     7     6    1
     2     8     6    1
     3     9     6    1
     4     6     1    1
     5    14    13    1
     6    24    23    1
     7    17    15    1
     8    30    27    1
     9    13    23   ar
    10    13    20   ar
    11    29    27    1
    12    23     5   ar
    13    27    28    1
    14    27    10    1
    15     2    20    1
    16    15     1    1
    17    15    16    1
    18    15    18    1
    19     1     4    1
    20     1     3    1
    21    20    31   ar
    22     5     4    1
    23     5    25   ar
    24    10     3    1
    25    10    21    2
    26     3    19    1
    27    31    25   ar
    28    31    32    1
    29    25    26    1
    30    21    22    1
    31    21    11    1
    32    19    33    1
    33    19    11    1
    34    36    33    1
    35    35    33    1
    36    33    34    1
    37    11    12    1
