@<TRIPOS>MOLECULE
1,6
 22 22 0 0 0
SMALL
GASTEIGER

@<TRIPOS>ATOM
      1 N           8.7829    6.4055   11.6695 N.pl3   1  UNL1       -0.3358
      2 C           7.0944    8.1594   11.4277 C.ar    1  UNL1       -0.0261
      3 C           7.3983    6.8146   11.7374 C.ar    1  UNL1        0.0324
      4 C           5.7663    8.5708   11.5804 C.ar    1  UNL1       -0.0568
      5 H           5.5123    9.5970   11.3483 H       1  UNL1        0.0621
      6 C           8.1380    9.1187   11.0012 C.3     1  UNL1       -0.0219
      7 H           7.6763   10.1050   10.8717 H       1  UNL1        0.0317
      8 H           8.5305    8.8237   10.0176 H       1  UNL1        0.0317
      9 C           4.7754    7.7105   12.0106 C.ar    1  UNL1       -0.0614
     10 H           3.7605    8.0649   12.1168 H       1  UNL1        0.0618
     11 C           6.3931    5.9545   12.1532 C.ar    1  UNL1       -0.0404
     12 H           6.6163    4.9235   12.3812 H       1  UNL1        0.0636
     13 C           5.0857    6.3922   12.2912 C.ar    1  UNL1       -0.0600
     14 H           4.3195    5.7039   12.6145 H       1  UNL1        0.0618
     15 C           9.1438    5.9922   10.3106 C.3     1  UNL1        0.0004
     16 H           8.6563    5.0442   10.0433 H       1  UNL1        0.0428
     17 H          10.2253    5.8643   10.2404 H       1  UNL1        0.0428
     18 H           8.8317    6.7460    9.5917 H       1  UNL1        0.0428
     19 C           9.1239    5.3293   12.5986 C.3     1  UNL1        0.0004
     20 H           8.7489    5.5701   13.5930 H       1  UNL1        0.0428
     21 H          10.2094    5.2295   12.6379 H       1  UNL1        0.0428
     22 H           8.7157    4.3580   12.2889 H       1  UNL1        0.0428
@<TRIPOS>BOND
     1    18    15    1
     2     8     6    1
     3    16    15    1
     4    17    15    1
     5    15     1    1
     6     7     6    1
     7     6     2    1
     8     5     4    1
     9     2     4   ar
    10     2     3   ar
    11     4     9   ar
    12     1     3    1
    13     1    19    1
    14     3    11   ar
    15     9    10    1
    16     9    13   ar
    17    11    13   ar
    18    11    12    1
    19    22    19    1
    20    13    14    1
    21    19    21    1
    22    19    20    1
