@<TRIPOS>MOLECULE
1,8
 22 22 0 0 0
SMALL
GASTEIGER

@<TRIPOS>ATOM
      1 N           8.2239    9.4514   14.7024 N.pl3   1  UNL1       -0.3358
      2 C           9.2264    9.9455   15.6170 C.ar    1  UNL1        0.0324
      3 C          10.5210    9.3886   15.5262 C.ar    1  UNL1       -0.0261
      4 C           8.9773   10.9809   16.5044 C.ar    1  UNL1       -0.0404
      5 H           7.9878   11.4047   16.5842 H       1  UNL1        0.0636
      6 C           9.9878   11.5017   17.2966 C.ar    1  UNL1       -0.0600
      7 H           9.7725   12.3082   17.9814 H       1  UNL1        0.0618
      8 C          10.8251    8.2866   14.5817 C.3     1  UNL1       -0.0219
      9 H          10.2704    7.3852   14.8763 H       1  UNL1        0.0317
     10 H          11.8903    8.0369   14.6713 H       1  UNL1        0.0317
     11 C           7.2099   10.4396   14.3411 C.3     1  UNL1        0.0004
     12 H           6.5089   10.6446   15.1615 H       1  UNL1        0.0428
     13 H           6.6344   10.0472   13.5028 H       1  UNL1        0.0428
     14 H           7.6944   11.3675   14.0435 H       1  UNL1        0.0428
     15 C          11.5214    9.9426   16.3285 C.ar    1  UNL1       -0.0568
     16 H          12.5234    9.5398   16.2608 H       1  UNL1        0.0621
     17 C           7.5540    8.2647   15.2352 C.3     1  UNL1        0.0004
     18 H           8.2866    7.5432   15.5887 H       1  UNL1        0.0428
     19 H           6.9470    7.8082   14.4521 H       1  UNL1        0.0428
     20 H           6.9005    8.5238   16.0801 H       1  UNL1        0.0428
     21 C          11.2675   10.9865   17.1967 C.ar    1  UNL1       -0.0614
     22 H          12.0654   11.3928   17.8012 H       1  UNL1        0.0618
@<TRIPOS>BOND
     1    13    11    1
     2    14    11    1
     3    11     1    1
     4    11    12    1
     5    19    17    1
     6     8    10    1
     7     8     9    1
     8     8     3    1
     9     1    17    1
    10     1     2    1
    11    17    18    1
    12    17    20    1
    13     3     2   ar
    14     3    15   ar
    15     2     4   ar
    16    16    15    1
    17    15    21   ar
    18     4     5    1
    19     4     6   ar
    20    21     6   ar
    21    21    22    1
    22     6     7    1
