@<TRIPOS>MOLECULE
1,3
 37 37 0 0 0
SMALL
GASTEIGER

@<TRIPOS>ATOM
      1 N           3.2679    2.9223    8.9774 N.pl3   1  UNL1        0.0000
      2 C           3.6748    1.6561    9.2819 C.3     1  UNL1        0.0000
      3 C           4.7214    1.1912    8.3704 C.3     1  UNL1        0.0000
      4 SI          3.8816    0.4613    6.8497 Si      1  UNL1        0.0000
      5 C           5.0674   -0.2722    5.5468 C.3     1  UNL1        0.0000
      6 H           4.5208   -0.9113    4.8617 H       1  UNL1        0.0000
      7 H           5.5536    0.4994    4.9618 H       1  UNL1        0.0000
      8 H           5.8361   -0.8769    6.0120 H       1  UNL1        0.0000
      9 C           2.5655   -0.8761    7.2518 C.3     1  UNL1        0.0000
     10 H           1.9680   -1.1364    6.3831 H       1  UNL1        0.0000
     11 H           3.0379   -1.7847    7.6095 H       1  UNL1        0.0000
     12 H           1.8886   -0.5329    8.0282 H       1  UNL1        0.0000
     13 C           2.9463    1.9466    6.0666 C.3     1  UNL1        0.0000
     14 H           3.5206    2.8828    6.1930 H       1  UNL1        0.0000
     15 H           2.7851    1.8273    4.9990 H       1  UNL1        0.0000
     16 H           1.9718    2.0822    6.5291 H       1  UNL1        0.0000
     17 SI          6.1108    0.2761    9.2613 Si      1  UNL1        0.0000
     18 C           6.4090    1.0798   10.9761 C.3     1  UNL1        0.0000
     19 H           7.1357    0.5178   11.5549 H       1  UNL1        0.0000
     20 H           6.7892    2.0909   10.8696 H       1  UNL1        0.0000
     21 H           5.4975    1.1360   11.5614 H       1  UNL1        0.0000
     22 C           7.8098    0.3438    8.3859 C.3     1  UNL1        0.0000
     23 H           8.5464   -0.1879    8.9805 H       1  UNL1        0.0000
     24 H           7.7857   -0.1304    7.4112 H       1  UNL1        0.0000
     25 H           8.1661    1.3604    8.2632 H       1  UNL1        0.0000
     26 C           5.7648   -1.5966    9.5084 C.3     1  UNL1        0.0000
     27 H           6.5858   -2.0824   10.0271 H       1  UNL1        0.0000
     28 H           4.8631   -1.7801   10.0831 H       1  UNL1        0.0000
     29 H           5.6431   -2.0921    8.5502 H       1  UNL1        0.0000
     30 C           3.1046    0.9741   10.3475 C.2     1  UNL1        0.0000
     31 C           2.0851    1.5586   11.0873 C.2     1  UNL1        0.0000
     32 C           1.6622    2.8360   10.7445 C.2     1  UNL1        0.0000
     33 C           2.2823    3.4798    9.6904 C.2     1  UNL1        0.0000
     34 H           1.9877    4.4790    9.3927 H       1  UNL1        0.0000
     35 H           0.8644    3.3238   11.2819 H       1  UNL1        0.0000
     36 H           1.6210    1.0235   11.9019 H       1  UNL1        0.0000
     37 H           3.4379   -0.0268   10.5666 H       1  UNL1        0.0000
@<TRIPOS>BOND
     1     6     5    1
     2     7     5    1
     3    15    13    1
     4     5     8    1
     5     5     4    1
     6    13    14    1
     7    13    16    1
     8    13     4    1
     9    10     9    1
    10     4     9    1
    11     4     3    1
    12     9    11    1
    13     9    12    1
    14    24    22    1
    15    25    22    1
    16     3    17    1
    17     3     2    1
    18    22    23    1
    19    22    17    1
    20    29    26    1
    21     1     2    1
    22     1    33    1
    23    17    26    1
    24    17    18    1
    25     2    30    1
    26    34    33    1
    27    26    27    1
    28    26    28    1
    29    33    32    2
    30    30    37    1
    31    30    31    2
    32    32    31    1
    33    32    35    1
    34    20    18    1
    35    18    19    1
    36    18    21    1
    37    31    36    1
