@<TRIPOS>MOLECULE
3,4
 37 37 0 0 0
SMALL
GASTEIGER

@<TRIPOS>ATOM
      1 SI          5.5797    6.1910    8.2277 Si      1  UNL1        0.0000
      2 SI          3.4644    6.1921    5.7418 Si      1  UNL1        0.0000
      3 N           6.0800    3.4348    6.4171 N.pl3   1  UNL1        0.0000
      4 C           4.8096    5.3283    6.7376 C.3     1  UNL1        0.0000
      5 C           5.8505    4.6795    5.9403 C.3     1  UNL1        0.0000
      6 C           6.5396    5.1669    4.8372 C.2     1  UNL1        0.0000
      7 C           7.5096    4.3769    4.2383 C.2     1  UNL1        0.0000
      8 C           7.7551    3.1122    4.7572 C.2     1  UNL1        0.0000
      9 C           7.0132    2.6788    5.8428 C.2     1  UNL1        0.0000
     10 C           4.2843    7.0649    9.3241 C.3     1  UNL1        0.0000
     11 C           6.9824    7.4285    7.8178 C.3     1  UNL1        0.0000
     12 C           6.3083    4.7357    9.2461 C.3     1  UNL1        0.0000
     13 C           3.2747    5.3797    4.0155 C.3     1  UNL1        0.0000
     14 C           1.8133    5.9493    6.6790 C.3     1  UNL1        0.0000
     15 C           3.7276    8.0689    5.4679 C.3     1  UNL1        0.0000
     16 H           4.7642    7.5472   10.1690 H       1  UNL1        0.0000
     17 H           3.5579    6.3618    9.7162 H       1  UNL1        0.0000
     18 H           3.7485    7.8288    8.7739 H       1  UNL1        0.0000
     19 H           7.4929    7.7724    8.7120 H       1  UNL1        0.0000
     20 H           6.5882    8.3008    7.3076 H       1  UNL1        0.0000
     21 H           7.7227    6.9740    7.1669 H       1  UNL1        0.0000
     22 H           5.6241    3.8728    9.2188 H       1  UNL1        0.0000
     23 H           6.4577    4.9879   10.2919 H       1  UNL1        0.0000
     24 H           7.2648    4.4125    8.8451 H       1  UNL1        0.0000
     25 H           2.2929    5.5716    3.5938 H       1  UNL1        0.0000
     26 H           3.4057    4.3036    4.0673 H       1  UNL1        0.0000
     27 H           4.0092    5.7605    3.3137 H       1  UNL1        0.0000
     28 H           0.9700    6.3000    6.0927 H       1  UNL1        0.0000
     29 H           1.8097    6.4997    7.6131 H       1  UNL1        0.0000
     30 H           1.6427    4.9011    6.9082 H       1  UNL1        0.0000
     31 H           2.9092    8.5000    4.8999 H       1  UNL1        0.0000
     32 H           4.6451    8.2692    4.9242 H       1  UNL1        0.0000
     33 H           3.7878    8.5984    6.4125 H       1  UNL1        0.0000
     34 H           6.3252    6.1608    4.4775 H       1  UNL1        0.0000
     35 H           8.0705    4.7423    3.3909 H       1  UNL1        0.0000
     36 H           8.5073    2.4709    4.3256 H       1  UNL1        0.0000
     37 H           7.1532    1.6981    6.2685 H       1  UNL1        0.0000
@<TRIPOS>BOND
     1    27    13    1
     2    35     7    1
     3    25    13    1
     4    13    26    1
     5    13     2    1
     6     7     8    1
     7     7     6    2
     8    36     8    1
     9    34     6    1
    10     8     9    2
    11     6     5    1
    12    31    15    1
    13    32    15    1
    14    15     2    1
    15    15    33    1
    16     2    14    1
    17     2     4    1
    18     9    37    1
    19     9     3    1
    20     5     3    1
    21     5     4    1
    22    28    14    1
    23    14    30    1
    24    14    29    1
    25     4     1    1
    26    21    11    1
    27    20    11    1
    28    11     1    1
    29    11    19    1
    30     1    12    1
    31     1    10    1
    32    18    10    1
    33    24    12    1
    34    22    12    1
    35    12    23    1
    36    10    17    1
    37    10    16    1
