@<TRIPOS>MOLECULE
4,5
 40 40 0 0 0
SMALL
GASTEIGER

@<TRIPOS>ATOM
      1 AS         -5.5676    4.6784   18.9002 As      1  UNL1        0.0000
      2 SI         -7.6520    4.7622   17.7339 Si      1  UNL1        0.0000
      3 SI         -5.5912    6.7619   20.0513 Si      1  UNL1        0.0000
      4 N          -3.2410    5.7316   17.5672 N.pl3   1  UNL1        0.0000
      5 C          -4.4223    5.2100   17.4240 C.3     1  UNL1        0.0000
      6 C          -2.4013    5.8632   18.6790 C.ar    1  UNL1        0.0000
      7 C          -1.5833    6.9920   18.7617 C.ar    1  UNL1        0.0000
      8 C          -0.6706    7.1102   19.7901 C.ar    1  UNL1        0.0000
      9 C          -0.5447    6.1023   20.7344 C.ar    1  UNL1        0.0000
     10 C          -1.3428    4.9739   20.6469 C.ar    1  UNL1        0.0000
     11 C          -2.2734    4.8534   19.6326 C.ar    1  UNL1        0.0000
     12 C          -7.6893    3.5033   16.2897 C.3     1  UNL1        0.0000
     13 C          -8.2543    6.4420   17.0276 C.3     1  UNL1        0.0000
     14 C          -8.9556    4.1479   18.9975 C.3     1  UNL1        0.0000
     15 C          -5.1863    8.2671   18.9402 C.3     1  UNL1        0.0000
     16 C          -4.3474    6.7120   21.5059 C.3     1  UNL1        0.0000
     17 C          -7.3122    7.0256   20.8451 C.3     1  UNL1        0.0000
     18 H          -1.6699    7.7603   18.0074 H       1  UNL1        0.0000
     19 H          -0.0455    7.9885   19.8512 H       1  UNL1        0.0000
     20 H           0.1781    6.1937   21.5309 H       1  UNL1        0.0000
     21 H          -1.2408    4.1809   21.3729 H       1  UNL1        0.0000
     22 H          -2.8837    3.9615   19.5561 H       1  UNL1        0.0000
     23 H          -6.8568    3.6556   15.6099 H       1  UNL1        0.0000
     24 H          -8.6078    3.5855   15.7158 H       1  UNL1        0.0000
     25 H          -7.6284    2.4851   16.6638 H       1  UNL1        0.0000
     26 H          -9.3069    6.3959   16.7642 H       1  UNL1        0.0000
     27 H          -7.7074    6.7148   16.1310 H       1  UNL1        0.0000
     28 H          -8.1339    7.2466   17.7468 H       1  UNL1        0.0000
     29 H          -9.9025    3.9120   18.5232 H       1  UNL1        0.0000
     30 H          -9.1479    4.8904   19.7647 H       1  UNL1        0.0000
     31 H          -8.5968    3.2493   19.4943 H       1  UNL1        0.0000
     32 H          -4.3290    8.0542   18.3068 H       1  UNL1        0.0000
     33 H          -4.9455    9.1448   19.5322 H       1  UNL1        0.0000
     34 H          -6.0210    8.5245   18.2945 H       1  UNL1        0.0000
     35 H          -4.2996    5.7137   21.9349 H       1  UNL1        0.0000
     36 H          -4.6418    7.3969   22.2957 H       1  UNL1        0.0000
     37 H          -3.3450    6.9845   21.1923 H       1  UNL1        0.0000
     38 H          -7.5770    6.1666   21.4550 H       1  UNL1        0.0000
     39 H          -8.0931    7.1600   20.1045 H       1  UNL1        0.0000
     40 H          -7.3140    7.8999   21.4876 H       1  UNL1        0.0000
@<TRIPOS>BOND
     1    23    12    1
     2    24    12    1
     3    27    13    1
     4    12    25    1
     5    12     2    1
     6    26    13    1
     7    13     2    1
     8    13    28    1
     9     5     4    1
    10     5     1    1
    11     4     6    1
    12     2     1    1
    13     2    14    1
    14    18     7    1
    15    34    15    1
    16    32    15    1
    17    29    14    1
    18     6     7   ar
    19     6    11   ar
    20     7     8   ar
    21     1     3    1
    22    15    33    1
    23    15     3    1
    24    14    31    1
    25    14    30    1
    26    22    11    1
    27    11    10   ar
    28     8    19    1
    29     8     9   ar
    30     3    17    1
    31     3    16    1
    32    39    17    1
    33    10     9   ar
    34    10    21    1
    35     9    20    1
    36    17    38    1
    37    17    40    1
    38    37    16    1
    39    16    35    1
    40    16    36    1
