@<TRIPOS>MOLECULE
2,3
 44 45 0 0 0
SMALL
GASTEIGER

@<TRIPOS>ATOM
      1 SI          1.4685   11.0112    4.9730 Si      1  UNL1        0.0000
      2 N           2.2745   11.8405    6.3502 N.3     1  UNL1        0.0000
      3 C           0.4248   12.5131    4.5152 C.3     1  UNL1        0.0000
      4 C          -0.9645   12.2352    3.9506 C.3     1  UNL1        0.0000
      5 C          -1.6445   13.5374    3.5315 C.3     1  UNL1        0.0000
      6 C          -0.9101   11.2894    2.7477 C.3     1  UNL1        0.0000
      7 C           2.6018   11.0859    7.5480 C.3     1  UNL1        0.0000
      8 C           3.7651   10.1214    7.3362 C.3     1  UNL1        0.0000
      9 C           0.5761    9.5007    5.6911 C.ar    1  UNL1        0.0000
     10 C           0.9823    8.2000    5.4067 C.ar    1  UNL1        0.0000
     11 C           0.3147    7.1106    5.9377 C.ar    1  UNL1        0.0000
     12 C          -0.7767    7.3036    6.7670 C.ar    1  UNL1        0.0000
     13 C          -1.1935    8.5911    7.0615 C.ar    1  UNL1        0.0000
     14 C          -0.5234    9.6767    6.5274 C.ar    1  UNL1        0.0000
     15 C           2.7785   10.4160    3.7193 C.ar    1  UNL1        0.0000
     16 C           4.1144   10.7996    3.7959 C.ar    1  UNL1        0.0000
     17 C           5.0391   10.4025    2.8466 C.ar    1  UNL1        0.0000
     18 C           4.6440    9.6072    1.7855 C.ar    1  UNL1        0.0000
     19 C           3.3186    9.2182    1.6842 C.ar    1  UNL1        0.0000
     20 C           2.4024    9.6226    2.6371 C.ar    1  UNL1        0.0000
     21 H           3.1152   12.3224    6.0491 H       1  UNL1        0.0000
     22 H           0.9543   13.0870    3.7430 H       1  UNL1        0.0000
     23 H          -1.5782   11.7539    4.7177 H       1  UNL1        0.0000
     24 H          -1.1232   13.9758    2.6825 H       1  UNL1        0.0000
     25 H          -1.6416   14.2457    4.3568 H       1  UNL1        0.0000
     26 H          -2.6769   13.3543    3.2419 H       1  UNL1        0.0000
     27 H          -0.1939   11.6474    2.0104 H       1  UNL1        0.0000
     28 H          -1.8871   11.2190    2.2739 H       1  UNL1        0.0000
     29 H          -0.6138   10.2927    3.0647 H       1  UNL1        0.0000
     30 H           2.8481   11.7774    8.3616 H       1  UNL1        0.0000
     31 H           1.7136   10.5223    7.8411 H       1  UNL1        0.0000
     32 H           4.6721   10.6602    7.0660 H       1  UNL1        0.0000
     33 H           3.5289    9.4172    6.5420 H       1  UNL1        0.0000
     34 H           3.9583    9.5647    8.2491 H       1  UNL1        0.0000
     35 H           1.8335    8.0355    4.7605 H       1  UNL1        0.0000
     36 H           0.6475    6.1091    5.7045 H       1  UNL1        0.0000
     37 H          -1.2992    6.4542    7.1827 H       1  UNL1        0.0000
     38 H          -2.0422    8.7516    7.7097 H       1  UNL1        0.0000
     39 H          -0.8513   10.6789    6.7661 H       1  UNL1        0.0000
     40 H           4.4502   11.4160    4.6178 H       1  UNL1        0.0000
     41 H           6.0706   10.7138    2.9351 H       1  UNL1        0.0000
     42 H           5.3630    9.2934    1.0430 H       1  UNL1        0.0000
     43 H           2.9992    8.5979    0.8590 H       1  UNL1        0.0000
     44 H           1.3723    9.3138    2.5448 H       1  UNL1        0.0000
@<TRIPOS>BOND
     1    43    19    1
     2    42    18    1
     3    19    18   ar
     4    19    20   ar
     5    18    17   ar
     6    27     6    1
     7    28     6    1
     8    44    20    1
     9    20    15   ar
    10    24     5    1
    11     6    29    1
    12     6     4    1
    13    17    41    1
    14    17    16   ar
    15    26     5    1
    16     5     4    1
    17     5    25    1
    18    15    16   ar
    19    15     1    1
    20    22     3    1
    21    16    40    1
    22     4     3    1
    23     4    23    1
    24     3     1    1
    25    35    10    1
    26     1     9    1
    27     1     2    1
    28    10     9   ar
    29    10    11   ar
    30     9    14   ar
    31    36    11    1
    32    11    12   ar
    33    21     2    1
    34     2     7    1
    35    14    39    1
    36    14    13   ar
    37    33     8    1
    38    12    13   ar
    39    12    37    1
    40    13    38    1
    41    32     8    1
    42     8     7    1
    43     8    34    1
    44     7    31    1
    45     7    30    1
