@<TRIPOS>MOLECULE
2,8
 35 36 0 0 0
SMALL
GASTEIGER

@<TRIPOS>ATOM
      1 SI          2.6478    5.5000    0.1974 Si      1  UNL1        0.0000
      2 N           0.7026    3.5328    1.5118 N.pl3   1  UNL1        0.0000
      3 C          -0.4749    3.4953    2.1178 C.3     1  UNL1        0.0000
      4 C          -1.6577    3.4200    1.4024 C.2     1  UNL1        0.0000
      5 C          -1.5957    3.3931    0.0138 C.2     1  UNL1        0.0000
      6 C          -0.3637    3.4477   -0.6171 C.2     1  UNL1        0.0000
      7 C           0.7866    3.5253    0.1640 C.2     1  UNL1        0.0000
      8 C           2.1919    3.6925   -0.1914 C.3     1  UNL1        0.0000
      9 C           2.7731    3.0353   -1.3384 C.ar    1  UNL1        0.0000
     10 C           2.1166    2.0481   -2.0920 C.ar    1  UNL1        0.0000
     11 C           2.7474    1.3945   -3.1319 C.ar    1  UNL1        0.0000
     12 C           4.0587    1.6908   -3.4653 C.ar    1  UNL1        0.0000
     13 C           4.7313    2.6592   -2.7346 C.ar    1  UNL1        0.0000
     14 C           4.1034    3.3115   -1.6964 C.ar    1  UNL1        0.0000
     15 C           1.2054    6.4210    1.0558 C.3     1  UNL1        0.0000
     16 C           3.0184    6.4871   -1.3992 C.3     1  UNL1        0.0000
     17 C           4.0899    5.6755    1.4463 C.3     1  UNL1        0.0000
     18 H          -0.4578    3.5279    3.1981 H       1  UNL1        0.0000
     19 H          -2.6044    3.3943    1.9178 H       1  UNL1        0.0000
     20 H          -2.5034    3.3510   -0.5705 H       1  UNL1        0.0000
     21 H          -0.2957    3.4783   -1.6930 H       1  UNL1        0.0000
     22 H           1.0928    1.7931   -1.8677 H       1  UNL1        0.0000
     23 H           2.2070    0.6438   -3.6925 H       1  UNL1        0.0000
     24 H           4.5474    1.1788   -4.2806 H       1  UNL1        0.0000
     25 H           5.7557    2.9033   -2.9802 H       1  UNL1        0.0000
     26 H           4.6440    4.0545   -1.1311 H       1  UNL1        0.0000
     27 H           1.0663    6.0560    2.0691 H       1  UNL1        0.0000
     28 H           1.4088    7.4858    1.1159 H       1  UNL1        0.0000
     29 H           0.2655    6.2966    0.5275 H       1  UNL1        0.0000
     30 H           3.7315    5.9874   -2.0433 H       1  UNL1        0.0000
     31 H           2.1094    6.6309   -1.9740 H       1  UNL1        0.0000
     32 H           3.4162    7.4679   -1.1611 H       1  UNL1        0.0000
     33 H           3.8571    5.1349    2.3670 H       1  UNL1        0.0000
     34 H           5.0382    5.3180    1.0623 H       1  UNL1        0.0000
     35 H           4.2206    6.7180    1.7165 H       1  UNL1        0.0000
@<TRIPOS>BOND
     1    24    12    1
     2    23    11    1
     3    12    11   ar
     4    12    13   ar
     5    11    10   ar
     6    25    13    1
     7    13    14   ar
     8    10    22    1
     9    10     9   ar
    10    30    16    1
    11    31    16    1
    12    14     9   ar
    13    14    26    1
    14    21     6    1
    15    16    32    1
    16    16     1    1
    17     9     8    1
    18     6     5    1
    19     6     7    2
    20    20     5    1
    21     8     7    1
    22     8     1    1
    23     5     4    2
    24     7     2    1
    25     1    15    1
    26     1    17    1
    27    29    15    1
    28    15    28    1
    29    15    27    1
    30    34    17    1
    31     4    19    1
    32     4     3    1
    33    17    35    1
    34    17    33    1
    35     2     3    1
    36     3    18    1
