@<TRIPOS>MOLECULE
1,2,3,4,5
 114 122 0 0 0
SMALL
GASTEIGER

@<TRIPOS>ATOM
      1 P          16.8312    2.9009   11.6464 P.3     1  UNL1        0.0000
      2 P          16.9153   -0.1488   11.4801 P.3     1  UNL1        0.0000
      3 P          17.8179   -0.5334   14.7950 P.3     1  UNL1        0.0000
      4 P          17.5570    2.5174   15.2809 P.3     1  UNL1        0.0000
      5 SI         19.5336    3.0523   13.1171 Si      1  UNL1        0.0000
      6 C          17.0533    2.1740    9.9719 C.3     1  UNL1        0.0000
      7 C          16.5428    0.7451    9.9010 C.3     1  UNL1        0.0000
      8 C          18.2496    0.2104   16.4346 C.3     1  UNL1        0.0000
      9 C          17.2454    1.3285   16.6526 C.3     1  UNL1        0.0000
     10 C          15.1964    3.7208   11.5880 C.ar    1  UNL1        0.0000
     11 C          14.9529    4.6567   12.5860 C.ar    1  UNL1        0.0000
     12 C          13.7431    5.3222   12.6518 C.ar    1  UNL1        0.0000
     13 C          12.7617    5.0606   11.7104 C.ar    1  UNL1        0.0000
     14 C          13.0011    4.1361   10.7063 C.ar    1  UNL1        0.0000
     15 C          14.2088    3.4651   10.6435 C.ar    1  UNL1        0.0000
     16 C          18.2175   -1.2777   10.8123 C.ar    1  UNL1        0.0000
     17 C          17.8761   -2.1351    9.7658 C.ar    1  UNL1        0.0000
     18 C          18.8034   -3.0057    9.2290 C.ar    1  UNL1        0.0000
     19 C          20.0942   -3.0419    9.7337 C.ar    1  UNL1        0.0000
     20 C          20.4435   -2.1978   10.7713 C.ar    1  UNL1        0.0000
     21 C          19.5125   -1.3218   11.3046 C.ar    1  UNL1        0.0000
     22 C          15.6525   -1.4749   11.5703 C.ar    1  UNL1        0.0000
     23 C          14.3550   -1.4259   11.0784 C.ar    1  UNL1        0.0000
     24 C          13.5064   -2.5072   11.2484 C.ar    1  UNL1        0.0000
     25 C          13.9364   -3.6436   11.9112 C.ar    1  UNL1        0.0000
     26 C          15.2286   -3.6997   12.4083 C.ar    1  UNL1        0.0000
     27 C          16.0748   -2.6232   12.2360 C.ar    1  UNL1        0.0000
     28 C          16.4342   -1.5868   15.3934 C.ar    1  UNL1        0.0000
     29 C          15.1626   -1.4903   14.8462 C.ar    1  UNL1        0.0000
     30 C          14.1191   -2.2599   15.3331 C.ar    1  UNL1        0.0000
     31 C          14.3379   -3.1461   16.3714 C.ar    1  UNL1        0.0000
     32 C          15.6070   -3.2625   16.9182 C.ar    1  UNL1        0.0000
     33 C          16.6458   -2.4906   16.4362 C.ar    1  UNL1        0.0000
     34 C          19.1418   -1.7759   14.6226 C.ar    1  UNL1        0.0000
     35 C          20.4623   -1.3331   14.6291 C.ar    1  UNL1        0.0000
     36 C          21.5052   -2.2154   14.4250 C.ar    1  UNL1        0.0000
     37 C          21.2463   -3.5573   14.1982 C.ar    1  UNL1        0.0000
     38 C          19.9387   -4.0087   14.1908 C.ar    1  UNL1        0.0000
     39 C          18.8936   -3.1275   14.4055 C.ar    1  UNL1        0.0000
     40 C          16.3815    3.8512   15.6669 C.ar    1  UNL1        0.0000
     41 C          16.7803    5.1644   15.4189 C.ar    1  UNL1        0.0000
     42 C          15.9253    6.2180   15.6837 C.ar    1  UNL1        0.0000
     43 C          14.6555    5.9718   16.1818 C.ar    1  UNL1        0.0000
     44 C          14.2447    4.6688   16.4078 C.ar    1  UNL1        0.0000
     45 C          15.1016    3.6125   16.1548 C.ar    1  UNL1        0.0000
     46 C          17.7991    4.4279   11.4112 C.ar    1  UNL1        0.0000
     47 C          17.3687    5.4361   10.5541 C.ar    1  UNL1        0.0000
     48 C          18.1161    6.5907   10.4160 C.ar    1  UNL1        0.0000
     49 C          19.2923    6.7456   11.1343 C.ar    1  UNL1        0.0000
     50 C          19.7262    5.7355   11.9734 C.ar    1  UNL1        0.0000
     51 C          18.9863    4.5700   12.1197 C.ar    1  UNL1        0.0000
     52 C          20.0065    3.6327   14.8633 C.ar    1  UNL1        0.0000
     53 C          21.1718    4.2992   15.2114 C.ar    1  UNL1        0.0000
     54 C          21.4020    4.6782   16.5226 C.ar    1  UNL1        0.0000
     55 C          20.4533    4.4115   17.4977 C.ar    1  UNL1        0.0000
     56 C          19.2830    3.7534   17.1645 C.ar    1  UNL1        0.0000
     57 C          19.0713    3.3432   15.8532 C.ar    1  UNL1        0.0000
     58 C          21.1635    2.5087   12.2984 C.ar    1  UNL1        0.0000
     59 C          21.3465    2.6526   10.9290 C.ar    1  UNL1        0.0000
     60 C          22.4746    2.1593   10.2998 C.ar    1  UNL1        0.0000
     61 C          23.4467    1.5042   11.0368 C.ar    1  UNL1        0.0000
     62 C          23.2835    1.3542   12.4034 C.ar    1  UNL1        0.0000
     63 C          22.1516    1.8524   13.0222 C.ar    1  UNL1        0.0000
     64 H          16.6018    2.8174    9.2075 H       1  UNL1        0.0000
     65 H          18.1433    2.1827    9.8325 H       1  UNL1        0.0000
     66 H          17.0168    0.2111    9.0712 H       1  UNL1        0.0000
     67 H          15.4609    0.7324    9.7644 H       1  UNL1        0.0000
     68 H          18.2184   -0.5327   17.2370 H       1  UNL1        0.0000
     69 H          19.2621    0.6278   16.3672 H       1  UNL1        0.0000
     70 H          17.3558    1.8095   17.6300 H       1  UNL1        0.0000
     71 H          16.2270    0.9333   16.5597 H       1  UNL1        0.0000
     72 H          15.7320    4.8645   13.3069 H       1  UNL1        0.0000
     73 H          13.5700    6.0433   13.4381 H       1  UNL1        0.0000
     74 H          11.8131    5.5760   11.7566 H       1  UNL1        0.0000
     75 H          12.2381    3.9349    9.9673 H       1  UNL1        0.0000
     76 H          14.3736    2.7340    9.8666 H       1  UNL1        0.0000
     77 H          16.8659   -2.1266    9.3739 H       1  UNL1        0.0000
     78 H          18.5201   -3.6612    8.4174 H       1  UNL1        0.0000
     79 H          20.8194   -3.7257    9.3167 H       1  UNL1        0.0000
     80 H          21.4459   -2.2149   11.1742 H       1  UNL1        0.0000
     81 H          19.8026   -0.6630   12.1080 H       1  UNL1        0.0000
     82 H          13.9929   -0.5421   10.5763 H       1  UNL1        0.0000
     83 H          12.4993   -2.4606   10.8576 H       1  UNL1        0.0000
     84 H          13.2678   -4.4826   12.0399 H       1  UNL1        0.0000
     85 H          15.5724   -4.5823   12.9294 H       1  UNL1        0.0000
     86 H          17.0908   -2.6514   12.6100 H       1  UNL1        0.0000
     87 H          14.9829   -0.8206   14.0210 H       1  UNL1        0.0000
     88 H          13.1376   -2.1695   14.8904 H       1  UNL1        0.0000
     89 H          13.5271   -3.7499   16.7520 H       1  UNL1        0.0000
     90 H          15.7868   -3.9613   17.7229 H       1  UNL1        0.0000
     91 H          17.6351   -2.6056   16.8592 H       1  UNL1        0.0000
     92 H          20.6734   -0.2819   14.7739 H       1  UNL1        0.0000
     93 H          22.5229   -1.8530   14.4345 H       1  UNL1        0.0000
     94 H          22.0594   -4.2475   14.0275 H       1  UNL1        0.0000
     95 H          19.7271   -5.0538   14.0159 H       1  UNL1        0.0000
     96 H          17.8807   -3.5044   14.4149 H       1  UNL1        0.0000
     97 H          17.7670    5.3541   15.0137 H       1  UNL1        0.0000
     98 H          16.2478    7.2321   15.4957 H       1  UNL1        0.0000
     99 H          13.9870    6.7945   16.3911 H       1  UNL1        0.0000
    100 H          13.2513    4.4745   16.7875 H       1  UNL1        0.0000
    101 H          14.7721    2.5995   16.3318 H       1  UNL1        0.0000
    102 H          16.4464    5.3229    9.9988 H       1  UNL1        0.0000
    103 H          17.7807    7.3733    9.7502 H       1  UNL1        0.0000
    104 H          19.8704    7.6529   11.0317 H       1  UNL1        0.0000
    105 H          20.6490    5.8470   12.5236 H       1  UNL1        0.0000
    106 H          21.9049    4.5138   14.4475 H       1  UNL1        0.0000
    107 H          22.3157    5.1909   16.7875 H       1  UNL1        0.0000
    108 H          20.6243    4.7218   18.5189 H       1  UNL1        0.0000
    109 H          18.5370    3.5739   17.9277 H       1  UNL1        0.0000
    110 H          20.5903    3.1659   10.3505 H       1  UNL1        0.0000
    111 H          22.5980    2.2825    9.2328 H       1  UNL1        0.0000
    112 H          24.3282    1.1139   10.5480 H       1  UNL1        0.0000
    113 H          24.0417    0.8477   12.9850 H       1  UNL1        0.0000
    114 H          22.0311    1.7390   14.0909 H       1  UNL1        0.0000
@<TRIPOS>BOND
     1    78    18    1
     2    66     7    1
     3    64     6    1
     4    18    19   ar
     5    18    17   ar
     6   111    60    1
     7    79    19    1
     8    77    17    1
     9    19    20   ar
    10   103    48    1
    11    67     7    1
    12    17    16   ar
    13    65     6    1
    14    76    15    1
    15     7     6    1
    16     7     2    1
    17    75    14    1
    18     6     1    1
    19   102    47    1
    20    60    59   ar
    21    60    61   ar
    22   110    59    1
    23    48    47   ar
    24    48    49   ar
    25   112    61    1
    26    47    46   ar
    27    82    23    1
    28    15    14   ar
    29    15    10   ar
    30    14    13   ar
    31    20    80    1
    32    20    21   ar
    33    16    21   ar
    34    16     2    1
    35    83    24    1
    36    59    58   ar
    37   104    49    1
    38    61    62   ar
    39    23    24   ar
    40    23    22   ar
    41    49    50   ar
    42    24    25   ar
    43    21    81    1
    44    46     1    1
    45    46    51   ar
    46     2    22    1
    47    22    27   ar
    48    10     1    1
    49    10    11   ar
    50    13    74    1
    51    13    12   ar
    52    25    84    1
    53    25    26   ar
    54    50    51   ar
    55    50   105    1
    56    51     5    1
    57    27    26   ar
    58    27    86    1
    59    58    63   ar
    60    58     5    1
    61    62   113    1
    62    62    63   ar
    63    26    85    1
    64    11    12   ar
    65    11    72    1
    66    12    73    1
    67    63   114    1
    68     5    52    1
    69    95    38    1
    70    87    29    1
    71    94    37    1
    72    38    37   ar
    73    38    39   ar
    74    37    36   ar
    75    39    96    1
    76    39    34   ar
    77    36    93    1
    78    36    35   ar
    79   106    53    1
    80    34    35   ar
    81    34     3    1
    82    35    92    1
    83     3    28    1
    84     3     8    1
    85    29    30   ar
    86    29    28   ar
    87    52    53   ar
    88    52    57   ar
    89    88    30    1
    90    97    41    1
    91    53    54   ar
    92     4    40    1
    93     4    57    1
    94     4     9    1
    95    30    31   ar
    96    28    33   ar
    97    41    40   ar
    98    41    42   ar
    99    98    42    1
   100    40    45   ar
   101    42    43   ar
   102    57    56   ar
   103    45   101    1
   104    45    44   ar
   105    43    99    1
   106    43    44   ar
   107    69     8    1
   108    31    89    1
   109    31    32   ar
   110    44   100    1
   111     8     9    1
   112     8    68    1
   113    33    91    1
   114    33    32   ar
   115    54   107    1
   116    54    55   ar
   117    71     9    1
   118     9    70    1
   119    32    90    1
   120    56    55   ar
   121    56   109    1
   122    55   108    1
