@<TRIPOS>MOLECULE
1,2,3,4,5
 114 122 0 0 0
SMALL
GASTEIGER

@<TRIPOS>ATOM
      1 P          28.3232    2.2544    4.8898 P.3     1  UNL1        0.0000
      2 P          28.0860    3.3438    2.0674 P.3     1  UNL1        0.0000
      3 P          28.3063   -1.0194    3.7447 P.3     1  UNL1        0.0000
      4 P          27.8750   -0.2186    0.9138 P.3     1  UNL1        0.0000
      5 SI         30.4416    1.0661    2.9902 Si      1  UNL1        0.0000
      6 C          31.7878    1.7452    1.8369 C.ar    1  UNL1        0.0000
      7 C          32.3036    0.9848    0.7997 C.ar    1  UNL1        0.0000
      8 C          33.2645    1.4933   -0.0548 C.ar    1  UNL1        0.0000
      9 C          33.7244    2.7876    0.1142 C.ar    1  UNL1        0.0000
     10 C          33.2124    3.5647    1.1395 C.ar    1  UNL1        0.0000
     11 C          32.2529    3.0427    1.9858 C.ar    1  UNL1        0.0000
     12 C          27.9836    4.0634    4.7429 C.3     1  UNL1        0.0000
     13 C          28.5899    4.5063    3.4255 C.3     1  UNL1        0.0000
     14 C          30.0256    2.3467    5.4910 C.ar    1  UNL1        0.0000
     15 C          31.0095    1.8237    4.6602 C.ar    1  UNL1        0.0000
     16 C          32.3348    1.9278    5.0609 C.ar    1  UNL1        0.0000
     17 C          32.6720    2.5393    6.2537 C.ar    1  UNL1        0.0000
     18 C          31.6821    3.0736    7.0671 C.ar    1  UNL1        0.0000
     19 C          30.3579    2.9833    6.6868 C.ar    1  UNL1        0.0000
     20 C          27.3680    1.8622    6.3875 C.ar    1  UNL1        0.0000
     21 C          27.9339    1.2179    7.4821 C.ar    1  UNL1        0.0000
     22 C          27.1633    0.9156    8.5904 C.ar    1  UNL1        0.0000
     23 C          25.8165    1.2321    8.6129 C.ar    1  UNL1        0.0000
     24 C          25.2360    1.8432    7.5131 C.ar    1  UNL1        0.0000
     25 C          26.0062    2.1515    6.4092 C.ar    1  UNL1        0.0000
     26 C          26.6009    4.2598    1.4684 C.ar    1  UNL1        0.0000
     27 C          25.4689    4.3015    2.2767 C.ar    1  UNL1        0.0000
     28 C          24.3200    4.9489    1.8648 C.ar    1  UNL1        0.0000
     29 C          24.2788    5.5603    0.6225 C.ar    1  UNL1        0.0000
     30 C          25.3942    5.5178   -0.1961 C.ar    1  UNL1        0.0000
     31 C          26.5474    4.8757    0.2208 C.ar    1  UNL1        0.0000
     32 C          29.2752    3.8340    0.7812 C.ar    1  UNL1        0.0000
     33 C          29.8023    5.1166    0.6487 C.ar    1  UNL1        0.0000
     34 C          30.6931    5.3935   -0.3711 C.ar    1  UNL1        0.0000
     35 C          31.0571    4.4061   -1.2725 C.ar    1  UNL1        0.0000
     36 C          30.5281    3.1330   -1.1524 C.ar    1  UNL1        0.0000
     37 C          29.6480    2.8527   -0.1253 C.ar    1  UNL1        0.0000
     38 C          27.4250   -2.3336    2.7607 C.3     1  UNL1        0.0000
     39 C          27.0562   -1.8351    1.3682 C.3     1  UNL1        0.0000
     40 C          30.0129   -1.6200    3.7530 C.ar    1  UNL1        0.0000
     41 C          30.3255   -2.9360    4.0928 C.ar    1  UNL1        0.0000
     42 C          31.6333   -3.3721    4.0062 C.ar    1  UNL1        0.0000
     43 C          32.6244   -2.4961    3.5867 C.ar    1  UNL1        0.0000
     44 C          32.3086   -1.1863    3.2742 C.ar    1  UNL1        0.0000
     45 C          31.0019   -0.7276    3.3512 C.ar    1  UNL1        0.0000
     46 C          27.7506   -1.4736    5.4175 C.ar    1  UNL1        0.0000
     47 C          28.6461   -1.7163    6.4537 C.ar    1  UNL1        0.0000
     48 C          28.1824   -2.0631    7.7101 C.ar    1  UNL1        0.0000
     49 C          26.8228   -2.1413    7.9559 C.ar    1  UNL1        0.0000
     50 C          25.9231   -1.8468    6.9439 C.ar    1  UNL1        0.0000
     51 C          26.3849   -1.5130    5.6869 C.ar    1  UNL1        0.0000
     52 C          26.7645    0.2103   -0.4747 C.ar    1  UNL1        0.0000
     53 C          26.4305   -0.7039   -1.4718 C.ar    1  UNL1        0.0000
     54 C          25.5558   -0.3418   -2.4786 C.ar    1  UNL1        0.0000
     55 C          25.0133    0.9341   -2.5107 C.ar    1  UNL1        0.0000
     56 C          25.3579    1.8537   -1.5352 C.ar    1  UNL1        0.0000
     57 C          26.2288    1.4874   -0.5249 C.ar    1  UNL1        0.0000
     58 C          29.2744   -0.8756   -0.0663 C.ar    1  UNL1        0.0000
     59 C          29.6130   -0.3463   -1.3093 C.ar    1  UNL1        0.0000
     60 C          30.6953   -0.8459   -2.0101 C.ar    1  UNL1        0.0000
     61 C          31.4542   -1.8782   -1.4842 C.ar    1  UNL1        0.0000
     62 C          31.1210   -2.4150   -0.2516 C.ar    1  UNL1        0.0000
     63 C          30.0395   -1.9167    0.4505 C.ar    1  UNL1        0.0000
     64 H          31.9511   -0.0263    0.6645 H       1  UNL1        0.0000
     65 H          33.6566    0.8775   -0.8536 H       1  UNL1        0.0000
     66 H          34.4783    3.1900   -0.5485 H       1  UNL1        0.0000
     67 H          33.5650    4.5781    1.2781 H       1  UNL1        0.0000
     68 H          31.8625    3.6541    2.7891 H       1  UNL1        0.0000
     69 H          26.9039    4.2371    4.7549 H       1  UNL1        0.0000
     70 H          28.4299    4.5984    5.5900 H       1  UNL1        0.0000
     71 H          29.6842    4.4330    3.4845 H       1  UNL1        0.0000
     72 H          28.3072    5.5375    3.1842 H       1  UNL1        0.0000
     73 H          33.1109    1.5333    4.4209 H       1  UNL1        0.0000
     74 H          33.7087    2.6112    6.5529 H       1  UNL1        0.0000
     75 H          31.9465    3.5636    7.9942 H       1  UNL1        0.0000
     76 H          29.5823    3.4027    7.3172 H       1  UNL1        0.0000
     77 H          28.9829    0.9575    7.4671 H       1  UNL1        0.0000
     78 H          27.6184    0.4316    9.4423 H       1  UNL1        0.0000
     79 H          25.2186    0.9983    9.4817 H       1  UNL1        0.0000
     80 H          24.1822    2.0845    7.5199 H       1  UNL1        0.0000
     81 H          25.5456    2.6199    5.5484 H       1  UNL1        0.0000
     82 H          25.4837    3.8035    3.2363 H       1  UNL1        0.0000
     83 H          23.4535    4.9704    2.5103 H       1  UNL1        0.0000
     84 H          23.3807    6.0619    0.2931 H       1  UNL1        0.0000
     85 H          25.3682    5.9864   -1.1698 H       1  UNL1        0.0000
     86 H          27.4046    4.8426   -0.4362 H       1  UNL1        0.0000
     87 H          29.5158    5.9028    1.3324 H       1  UNL1        0.0000
     88 H          31.1061    6.3880   -0.4654 H       1  UNL1        0.0000
     89 H          31.7552    4.6311   -2.0655 H       1  UNL1        0.0000
     90 H          30.8140    2.3576   -1.8475 H       1  UNL1        0.0000
     91 H          29.2403    1.8568    0.0042 H       1  UNL1        0.0000
     92 H          28.0774   -3.2118    2.7038 H       1  UNL1        0.0000
     93 H          26.5277   -2.6314    3.3133 H       1  UNL1        0.0000
     94 H          25.9804   -1.6252    1.3119 H       1  UNL1        0.0000
     95 H          27.2917   -2.5883    0.6091 H       1  UNL1        0.0000
     96 H          29.5472   -3.6130    4.4282 H       1  UNL1        0.0000
     97 H          31.8816   -4.3931    4.2619 H       1  UNL1        0.0000
     98 H          33.6467   -2.8405    3.5104 H       1  UNL1        0.0000
     99 H          33.0864   -0.5097    2.9506 H       1  UNL1        0.0000
    100 H          29.7100   -1.6419    6.2721 H       1  UNL1        0.0000
    101 H          28.8880   -2.2717    8.5019 H       1  UNL1        0.0000
    102 H          26.4627   -2.4206    8.9352 H       1  UNL1        0.0000
    103 H          24.8603   -1.8841    7.1380 H       1  UNL1        0.0000
    104 H          25.6818   -1.2791    4.8957 H       1  UNL1        0.0000
    105 H          26.8651   -1.6941   -1.4682 H       1  UNL1        0.0000
    106 H          25.2965   -1.0563   -3.2469 H       1  UNL1        0.0000
    107 H          24.3300    1.2094   -3.3009 H       1  UNL1        0.0000
    108 H          24.9527    2.8556   -1.5576 H       1  UNL1        0.0000
    109 H          26.5147    2.1965    0.2419 H       1  UNL1        0.0000
    110 H          29.0165    0.4463   -1.7407 H       1  UNL1        0.0000
    111 H          30.9462   -0.4300   -2.9758 H       1  UNL1        0.0000
    112 H          32.3006   -2.2645   -2.0332 H       1  UNL1        0.0000
    113 H          31.7065   -3.2207    0.1683 H       1  UNL1        0.0000
    114 H          29.7907   -2.3352    1.4145 H       1  UNL1        0.0000
@<TRIPOS>BOND
     1   107    55    1
     2   106    54    1
     3   111    60    1
     4    55    54   ar
     5    55    56   ar
     6    54    53   ar
     7    89    35    1
     8   112    61    1
     9    60    61   ar
    10    60    59   ar
    11    90    36    1
    12   110    59    1
    13   108    56    1
    14    56    57   ar
    15    61    62   ar
    16    53   105    1
    17    53    52   ar
    18    59    58   ar
    19    35    36   ar
    20    35    34   ar
    21    85    30    1
    22    36    37   ar
    23    65     8    1
    24    66     9    1
    25    57    52   ar
    26    57   109    1
    27    52     4    1
    28    88    34    1
    29    86    31    1
    30    34    33   ar
    31    62   113    1
    32    62    63   ar
    33    30    31   ar
    34    30    29   ar
    35    37    91    1
    36    37    32   ar
    37    58    63   ar
    38    58     4    1
    39     8     9   ar
    40     8     7   ar
    41     9    10   ar
    42    31    26   ar
    43    84    29    1
    44    63   114    1
    45    95    39    1
    46    29    28   ar
    47    33    32   ar
    48    33    87    1
    49    64     7    1
    50    32     2    1
    51     7     6   ar
    52     4    39    1
    53    10    67    1
    54    10    11   ar
    55    94    39    1
    56    39    38    1
    57    26     2    1
    58    26    27   ar
    59     6    11   ar
    60     6     5    1
    61    28    27   ar
    62    28    83    1
    63    11    68    1
    64     2    13    1
    65    27    82    1
    66    92    38    1
    67    38    93    1
    68    38     3    1
    69    99    44    1
    70     5    45    1
    71     5    15    1
    72    72    13    1
    73    44    45   ar
    74    44    43   ar
    75    45    40   ar
    76    13    71    1
    77    13    12    1
    78    98    43    1
    79    43    42   ar
    80     3    40    1
    81     3    46    1
    82    40    41   ar
    83    42    41   ar
    84    42    97    1
    85    41    96    1
    86    73    16    1
    87    15    16   ar
    88    15    14   ar
    89    12    69    1
    90    12     1    1
    91    12    70    1
    92     1    14    1
    93     1    20    1
    94   104    51    1
    95    16    17   ar
    96    46    51   ar
    97    46    47   ar
    98    14    19   ar
    99    81    25    1
   100    51    50   ar
   101    17    74    1
   102    17    18   ar
   103   100    47    1
   104    20    25   ar
   105    20    21   ar
   106    25    24   ar
   107    47    48   ar
   108    19    18   ar
   109    19    76    1
   110    50   103    1
   111    50    49   ar
   112    18    75    1
   113    77    21    1
   114    21    22   ar
   115    24    80    1
   116    24    23   ar
   117    48    49   ar
   118    48   101    1
   119    49   102    1
   120    22    23   ar
   121    22    78    1
   122    23    79    1
