@<TRIPOS>MOLECULE
1,2,3,4,5
 114 122 0 0 0
SMALL
GASTEIGER

@<TRIPOS>ATOM
      1 P          11.7360    2.6728    6.4592 P.3     1  UNL1        0.0000
      2 P           8.8312    3.5317    6.3404 P.3     1  UNL1        0.0000
      3 P           9.8184    6.7050    5.1516 P.3     1  UNL1        0.0000
      4 P          12.4919    5.6400    4.4418 P.3     1  UNL1        0.0000
      5 SI         12.4853    5.4223    7.3244 Si      1  UNL1        0.0000
      6 C          12.4152    6.9738    8.4264 C.ar    1  UNL1        0.0000
      7 C          11.5887    7.0019    9.5422 C.ar    1  UNL1        0.0000
      8 C          11.5019    8.1247   10.3446 C.ar    1  UNL1        0.0000
      9 C          12.2440    9.2530   10.0360 C.ar    1  UNL1        0.0000
     10 C          13.0732    9.2434    8.9273 C.ar    1  UNL1        0.0000
     11 C          13.1553    8.1116    8.1349 C.ar    1  UNL1        0.0000
     12 C          12.7457    4.0164    8.5784 C.ar    1  UNL1        0.0000
     13 C          12.4024    2.7426    8.1370 C.ar    1  UNL1        0.0000
     14 C          12.6266    1.6258    8.9346 C.ar    1  UNL1        0.0000
     15 C          13.1569    1.7885   10.2015 C.ar    1  UNL1        0.0000
     16 C          13.4806    3.0565   10.6594 C.ar    1  UNL1        0.0000
     17 C          13.2877    4.1592    9.8449 C.ar    1  UNL1        0.0000
     18 C          13.0925    1.8084    5.6249 C.ar    1  UNL1        0.0000
     19 C          14.3968    2.1902    5.9391 C.ar    1  UNL1        0.0000
     20 C          15.4690    1.6583    5.2489 C.ar    1  UNL1        0.0000
     21 C          15.2542    0.7375    4.2351 C.ar    1  UNL1        0.0000
     22 C          13.9621    0.3555    3.9143 C.ar    1  UNL1        0.0000
     23 C          12.8866    0.8910    4.5994 C.ar    1  UNL1        0.0000
     24 C          10.4393    1.3736    6.5766 C.3     1  UNL1        0.0000
     25 C           9.2856    2.0358    7.3086 C.3     1  UNL1        0.0000
     26 C           7.5794    4.2254    7.4621 C.ar    1  UNL1        0.0000
     27 C           6.2145    4.2065    7.1974 C.ar    1  UNL1        0.0000
     28 C           5.3211    4.7220    8.1198 C.ar    1  UNL1        0.0000
     29 C           5.7771    5.2605    9.3100 C.ar    1  UNL1        0.0000
     30 C           7.1361    5.2860    9.5780 C.ar    1  UNL1        0.0000
     31 C           8.0301    4.7713    8.6606 C.ar    1  UNL1        0.0000
     32 C           7.7746    2.8904    5.0081 C.ar    1  UNL1        0.0000
     33 C           7.4220    3.8503    4.0624 C.ar    1  UNL1        0.0000
     34 C           6.6110    3.5318    2.9917 C.ar    1  UNL1        0.0000
     35 C           6.1417    2.2341    2.8499 C.ar    1  UNL1        0.0000
     36 C           6.4894    1.2709    3.7824 C.ar    1  UNL1        0.0000
     37 C           7.2999    1.5926    4.8602 C.ar    1  UNL1        0.0000
     38 C           8.6029    7.4115    6.2931 C.ar    1  UNL1        0.0000
     39 C           9.0126    7.9948    7.4873 C.ar    1  UNL1        0.0000
     40 C           8.0777    8.4437    8.4011 C.ar    1  UNL1        0.0000
     41 C           6.7249    8.3074    8.1393 C.ar    1  UNL1        0.0000
     42 C           6.3092    7.7072    6.9626 C.ar    1  UNL1        0.0000
     43 C           7.2411    7.2547    6.0484 C.ar    1  UNL1        0.0000
     44 C           9.0827    7.1633    3.5432 C.ar    1  UNL1        0.0000
     45 C           8.4633    8.3974    3.3568 C.ar    1  UNL1        0.0000
     46 C           7.9757    8.7464    2.1119 C.ar    1  UNL1        0.0000
     47 C           8.1061    7.8738    1.0417 C.ar    1  UNL1        0.0000
     48 C           8.7273    6.6496    1.2196 C.ar    1  UNL1        0.0000
     49 C           9.2141    6.2974    2.4669 C.ar    1  UNL1        0.0000
     50 C          11.1649    7.9666    5.1378 C.3     1  UNL1        0.0000
     51 C          12.2075    7.4534    4.1588 C.3     1  UNL1        0.0000
     52 C          14.2039    5.5745    6.5118 C.ar    1  UNL1        0.0000
     53 C          14.1663    5.6813    5.1267 C.ar    1  UNL1        0.0000
     54 C          15.3319    5.8538    4.3889 C.ar    1  UNL1        0.0000
     55 C          16.5480    5.8882    5.0466 C.ar    1  UNL1        0.0000
     56 C          16.5980    5.7671    6.4278 C.ar    1  UNL1        0.0000
     57 C          15.4306    5.6239    7.1575 C.ar    1  UNL1        0.0000
     58 C          12.8528    5.0222    2.7683 C.ar    1  UNL1        0.0000
     59 C          13.5748    3.8284    2.7511 C.ar    1  UNL1        0.0000
     60 C          13.8733    3.1926    1.5633 C.ar    1  UNL1        0.0000
     61 C          13.4464    3.7390    0.3621 C.ar    1  UNL1        0.0000
     62 C          12.7166    4.9145    0.3673 C.ar    1  UNL1        0.0000
     63 C          12.4153    5.5525    1.5601 C.ar    1  UNL1        0.0000
     64 H          11.0057    6.1244    9.7831 H       1  UNL1        0.0000
     65 H          10.8557    8.1231   11.2117 H       1  UNL1        0.0000
     66 H          12.1788   10.1346   10.6580 H       1  UNL1        0.0000
     67 H          13.6585   10.1192    8.6822 H       1  UNL1        0.0000
     68 H          13.8134    8.1079    7.2757 H       1  UNL1        0.0000
     69 H          12.3990    0.6320    8.5709 H       1  UNL1        0.0000
     70 H          13.3232    0.9260   10.8320 H       1  UNL1        0.0000
     71 H          13.8946    3.1801   11.6505 H       1  UNL1        0.0000
     72 H          13.5544    5.1455   10.1977 H       1  UNL1        0.0000
     73 H          14.5622    2.9119    6.7282 H       1  UNL1        0.0000
     74 H          16.4744    1.9647    5.5000 H       1  UNL1        0.0000
     75 H          16.0926    0.3196    3.6966 H       1  UNL1        0.0000
     76 H          13.7914   -0.3636    3.1246 H       1  UNL1        0.0000
     77 H          11.8820    0.5943    4.3372 H       1  UNL1        0.0000
     78 H          10.1321    1.1252    5.5522 H       1  UNL1        0.0000
     79 H          10.7964    0.4669    7.0777 H       1  UNL1        0.0000
     80 H           9.6278    2.4014    8.2872 H       1  UNL1        0.0000
     81 H           8.4267    1.3736    7.4679 H       1  UNL1        0.0000
     82 H           5.8452    3.7898    6.2709 H       1  UNL1        0.0000
     83 H           4.2616    4.7003    7.9070 H       1  UNL1        0.0000
     84 H           5.0754    5.6612   10.0270 H       1  UNL1        0.0000
     85 H           7.4976    5.7085   10.5043 H       1  UNL1        0.0000
     86 H           9.0931    4.7967    8.8630 H       1  UNL1        0.0000
     87 H           7.8056    4.8556    4.1926 H       1  UNL1        0.0000
     88 H           6.3432    4.2909    2.2696 H       1  UNL1        0.0000
     89 H           5.5081    1.9731    2.0142 H       1  UNL1        0.0000
     90 H           6.1259    0.2586    3.6713 H       1  UNL1        0.0000
     91 H           7.5535    0.8226    5.5746 H       1  UNL1        0.0000
     92 H          10.0649    8.0933    7.7081 H       1  UNL1        0.0000
     93 H           8.4101    8.9021    9.3215 H       1  UNL1        0.0000
     94 H           5.9948    8.6628    8.8520 H       1  UNL1        0.0000
     95 H           5.2544    7.5897    6.7583 H       1  UNL1        0.0000
     96 H           6.9102    6.7875    5.1295 H       1  UNL1        0.0000
     97 H           8.3577    9.0763    4.1931 H       1  UNL1        0.0000
     98 H           7.4927    9.7030    1.9716 H       1  UNL1        0.0000
     99 H           7.7233    8.1514    0.0701 H       1  UNL1        0.0000
    100 H           8.8330    5.9698    0.3855 H       1  UNL1        0.0000
    101 H           9.7033    5.3445    2.6259 H       1  UNL1        0.0000
    102 H          10.7861    8.9527    4.8436 H       1  UNL1        0.0000
    103 H          11.5841    8.0281    6.1457 H       1  UNL1        0.0000
    104 H          13.1602    7.9899    4.2482 H       1  UNL1        0.0000
    105 H          11.8304    7.5847    3.1392 H       1  UNL1        0.0000
    106 H          15.2899    5.9542    3.3116 H       1  UNL1        0.0000
    107 H          17.4617    6.0114    4.4819 H       1  UNL1        0.0000
    108 H          17.5532    5.7902    6.9338 H       1  UNL1        0.0000
    109 H          15.4687    5.5419    8.2350 H       1  UNL1        0.0000
    110 H          13.9070    3.4110    3.6923 H       1  UNL1        0.0000
    111 H          14.4410    2.2727    1.5745 H       1  UNL1        0.0000
    112 H          13.6799    3.2498   -0.5728 H       1  UNL1        0.0000
    113 H          12.3788    5.3437   -0.5662 H       1  UNL1        0.0000
    114 H          11.8338    6.4632    1.5256 H       1  UNL1        0.0000
@<TRIPOS>BOND
     1   112    61    1
     2   113    62    1
     3    99    47    1
     4    61    62   ar
     5    61    60   ar
     6    62    63   ar
     7   100    48    1
     8    47    48   ar
     9    47    46   ar
    10    48    49   ar
    11   114    63    1
    12    63    58   ar
    13    60   111    1
    14    60    59   ar
    15    98    46    1
    16    89    35    1
    17    46    45   ar
    18    88    34    1
    19    49   101    1
    20    49    44   ar
    21    59    58   ar
    22    59   110    1
    23    58     4    1
    24    35    34   ar
    25    35    36   ar
    26    34    33   ar
    27    76    22    1
    28   105    51    1
    29   106    54    1
    30    45    44   ar
    31    45    97    1
    32    44     3    1
    33    90    36    1
    34    75    21    1
    35    36    37   ar
    36    22    21   ar
    37    22    23   ar
    38    33    87    1
    39    33    32   ar
    40    51   104    1
    41    51     4    1
    42    51    50    1
    43    21    20   ar
    44    77    23    1
    45    54    55   ar
    46    54    53   ar
    47     4    53    1
    48   107    55    1
    49    23    18   ar
    50   102    50    1
    51    37    32   ar
    52    37    91    1
    53    32     2    1
    54    55    56   ar
    55    53    52   ar
    56    96    43    1
    57    50     3    1
    58    50   103    1
    59     3    38    1
    60    20    74    1
    61    20    19   ar
    62    78    24    1
    63    18    19   ar
    64    18     1    1
    65    19    73    1
    66    43    38   ar
    67    43    42   ar
    68    82    27    1
    69    38    39   ar
    70     2    25    1
    71     2    26    1
    72    56   108    1
    73    56    57   ar
    74     1    24    1
    75     1    13    1
    76    52    57   ar
    77    52     5    1
    78    24    79    1
    79    24    25    1
    80    95    42    1
    81    42    41   ar
    82    57   109    1
    83    27    26   ar
    84    27    28   ar
    85    68    11    1
    86    25    81    1
    87    25    80    1
    88     5     6    1
    89     5    12    1
    90    26    31   ar
    91    39    92    1
    92    39    40   ar
    93    83    28    1
    94    28    29   ar
    95    11     6   ar
    96    11    10   ar
    97    13    12   ar
    98    13    14   ar
    99    41    40   ar
   100    41    94    1
   101    40    93    1
   102     6     7   ar
   103    69    14    1
   104    12    17   ar
   105    31    86    1
   106    31    30   ar
   107    67    10    1
   108    10     9   ar
   109    14    15   ar
   110    29    30   ar
   111    29    84    1
   112     7    64    1
   113     7     8   ar
   114    30    85    1
   115    17    72    1
   116    17    16   ar
   117     9     8   ar
   118     9    66    1
   119    15    16   ar
   120    15    70    1
   121     8    65    1
   122    16    71    1
