@<TRIPOS>MOLECULE
1,2
 42 43 0 0 0
SMALL
GASTEIGER

@<TRIPOS>ATOM
      1 P           6.6157    9.3036    9.2656 P.3     1  UNL1        0.0000
      2 SI          6.1723    7.8642   11.7461 Si      1  UNL1        0.0000
      3 O           7.7146    8.4489   11.4866 O.3     1  UNL1        0.0000
      4 C           5.7908    8.8078   13.3779 C.3     1  UNL1        0.0000
      5 C           6.3304    6.0422   12.3299 C.3     1  UNL1        0.0000
      6 C           7.1459    9.2768    7.5191 C.ar    1  UNL1        0.0000
      7 C           8.1180   10.1172    6.9814 C.ar    1  UNL1        0.0000
      8 C           8.4702   10.0040    5.6487 C.ar    1  UNL1        0.0000
      9 C           7.8560    9.0601    4.8404 C.ar    1  UNL1        0.0000
     10 C           6.8837    8.2259    5.3670 C.ar    1  UNL1        0.0000
     11 C           6.5324    8.3355    6.7001 C.ar    1  UNL1        0.0000
     12 C           6.5305   11.0885    9.6206 C.ar    1  UNL1        0.0000
     13 C           6.2660   12.0408    8.6401 C.ar    1  UNL1        0.0000
     14 C           6.0946   13.3699    8.9872 C.ar    1  UNL1        0.0000
     15 C           6.1781   13.7625   10.3125 C.ar    1  UNL1        0.0000
     16 C           6.4233   12.8171   11.2966 C.ar    1  UNL1        0.0000
     17 C           6.5856   11.4878   10.9555 C.ar    1  UNL1        0.0000
     18 C           8.1738    8.7450   10.2081 C.3     1  UNL1        0.0000
     19 C           9.2945    9.7810   10.3060 C.3     1  UNL1        0.0000
     20 C           8.7088    7.4814    9.5336 C.3     1  UNL1        0.0000
     21 H           6.7212    9.0161   13.8951 H       1  UNL1        0.0000
     22 H           5.2738    9.7487   13.2327 H       1  UNL1        0.0000
     23 H           5.1840    8.1897   14.0253 H       1  UNL1        0.0000
     24 H           5.3657    5.6829   12.6671 H       1  UNL1        0.0000
     25 H           6.6740    5.3758   11.5485 H       1  UNL1        0.0000
     26 H           7.0191    5.9662   13.1637 H       1  UNL1        0.0000
     27 H           8.5899   10.8646    7.6034 H       1  UNL1        0.0000
     28 H           9.2267   10.6562    5.2363 H       1  UNL1        0.0000
     29 H           8.1351    8.9780    3.8002 H       1  UNL1        0.0000
     30 H           6.4019    7.4914    4.7382 H       1  UNL1        0.0000
     31 H           5.7790    7.6951    7.1370 H       1  UNL1        0.0000
     32 H           6.1961   11.7440    7.6030 H       1  UNL1        0.0000
     33 H           5.8916   14.1020    8.2185 H       1  UNL1        0.0000
     34 H           6.0452   14.8008   10.5785 H       1  UNL1        0.0000
     35 H           6.4796   13.1187   12.3325 H       1  UNL1        0.0000
     36 H           6.7578   10.7427   11.7164 H       1  UNL1        0.0000
     37 H          10.0688    9.3884   10.9629 H       1  UNL1        0.0000
     38 H           9.7299    9.9659    9.3277 H       1  UNL1        0.0000
     39 H           8.9356   10.7171   10.7253 H       1  UNL1        0.0000
     40 H           7.9037    6.7620    9.4241 H       1  UNL1        0.0000
     41 H           9.1269    7.7071    8.5551 H       1  UNL1        0.0000
     42 H           9.4801    7.0399   10.1614 H       1  UNL1        0.0000
@<TRIPOS>BOND
     1    29     9    1
     2    30    10    1
     3     9    10   ar
     4     9     8   ar
     5    28     8    1
     6    10    11   ar
     7     8     7   ar
     8    11    31    1
     9    11     6   ar
    10     7     6   ar
    11     7    27    1
    12     6     1    1
    13    32    13    1
    14    33    14    1
    15    41    20    1
    16    13    14   ar
    17    13    12   ar
    18    14    15   ar
    19     1    12    1
    20     1    18    1
    21    38    19    1
    22    40    20    1
    23    20    42    1
    24    20    18    1
    25    12    17   ar
    26    18    19    1
    27    18     3    1
    28    19    39    1
    29    19    37    1
    30    15    34    1
    31    15    16   ar
    32    17    16   ar
    33    17    36    1
    34    16    35    1
    35     3     2    1
    36    25     5    1
    37     2     5    1
    38     2     4    1
    39     5    24    1
    40     5    26    1
    41    22     4    1
    42     4    21    1
    43     4    23    1
