@<TRIPOS>MOLECULE
1,2
 51 53 0 0 0
SMALL
GASTEIGER

@<TRIPOS>ATOM
      1 P           7.5448    3.2211   12.3500 P.3     1  UNL1        0.0000
      2 SI          9.3119    1.6620   14.0054 Si      1  UNL1        0.0000
      3 N           7.9969    2.4905   14.8761 N.pl3   1  UNL1        0.0000
      4 N           4.0968    3.4412   16.1891 N.pl3   1  UNL1        0.0000
      5 C           8.7078   -0.1691   13.9159 C.3     1  UNL1        0.0000
      6 C          10.7836    1.6530   15.2360 C.3     1  UNL1        0.0000
      7 C           6.9634    4.7949   11.6354 C.ar    1  UNL1        0.0000
      8 C           7.9501    5.7356   11.3538 C.ar    1  UNL1        0.0000
      9 C           7.6151    6.9816   10.8583 C.ar    1  UNL1        0.0000
     10 C           6.2848    7.2999   10.6364 C.ar    1  UNL1        0.0000
     11 C           5.2964    6.3689   10.9121 C.ar    1  UNL1        0.0000
     12 C           5.6289    5.1210   11.4084 C.ar    1  UNL1        0.0000
     13 C           6.1797    2.0864   11.9519 C.ar    1  UNL1        0.0000
     14 C           5.6497    2.0663   10.6627 C.ar    1  UNL1        0.0000
     15 C           4.6604    1.1617   10.3242 C.ar    1  UNL1        0.0000
     16 C           4.1933    0.2607   11.2679 C.ar    1  UNL1        0.0000
     17 C           4.7249    0.2657   12.5471 C.ar    1  UNL1        0.0000
     18 C           5.7194    1.1650   12.8881 C.ar    1  UNL1        0.0000
     19 C           7.3147    3.5541   14.1793 C.3     1  UNL1        0.0000
     20 C           5.8890    3.7484   14.5866 C.2     1  UNL1        0.0000
     21 C           5.3892    3.2102   15.7139 C.2     1  UNL1        0.0000
     22 C           6.2670    2.3836   16.5243 C.2     1  UNL1        0.0000
     23 C           7.4870    2.0640   16.0617 C.2     1  UNL1        0.0000
     24 C           3.3065    4.4384   15.5100 C.3     1  UNL1        0.0000
     25 C           3.3129    2.2829   16.5592 C.3     1  UNL1        0.0000
     26 H           8.0883   -0.4062   14.7749 H       1  UNL1        0.0000
     27 H           8.1221   -0.3637   13.0245 H       1  UNL1        0.0000
     28 H           9.5500   -0.8486   13.9252 H       1  UNL1        0.0000
     29 H          10.5598    1.0741   16.1245 H       1  UNL1        0.0000
     30 H          11.6529    1.2059   14.7706 H       1  UNL1        0.0000
     31 H          11.0550    2.6551   15.5450 H       1  UNL1        0.0000
     32 H           8.9812    5.4598   11.5298 H       1  UNL1        0.0000
     33 H           8.3883    7.7048   10.6428 H       1  UNL1        0.0000
     34 H           6.0177    8.2714   10.2471 H       1  UNL1        0.0000
     35 H           4.2590    6.6173   10.7390 H       1  UNL1        0.0000
     36 H           4.8511    4.3981   11.6117 H       1  UNL1        0.0000
     37 H           6.0096    2.7769    9.9308 H       1  UNL1        0.0000
     38 H           4.2530    1.1573    9.3230 H       1  UNL1        0.0000
     39 H           3.4187   -0.4446   11.0043 H       1  UNL1        0.0000
     40 H           4.3645   -0.4383   13.2835 H       1  UNL1        0.0000
     41 H           6.1327    1.1598   13.8832 H       1  UNL1        0.0000
     42 H           7.8860    4.5046   14.3140 H       1  UNL1        0.0000
     43 H           5.3099    4.3839   13.9362 H       1  UNL1        0.0000
     44 H           5.9458    2.0490   17.4950 H       1  UNL1        0.0000
     45 H           8.1411    1.4035   16.6119 H       1  UNL1        0.0000
     46 H           3.8872    5.3534   15.4095 H       1  UNL1        0.0000
     47 H           2.9708    4.1162   14.5132 H       1  UNL1        0.0000
     48 H           2.4250    4.6496   16.1166 H       1  UNL1        0.0000
     49 H           2.5397    2.5847   17.2683 H       1  UNL1        0.0000
     50 H           2.8237    1.8280   15.6849 H       1  UNL1        0.0000
     51 H           3.9421    1.5319   17.0267 H       1  UNL1        0.0000
@<TRIPOS>BOND
     1    38    15    1
     2    37    14    1
     3    34    10    1
     4    15    14   ar
     5    15    16   ar
     6    10     9   ar
     7    10    11   ar
     8    33     9    1
     9    14    13   ar
    10    35    11    1
    11     9     8   ar
    12    11    12   ar
    13    39    16    1
    14    16    17   ar
    15     8    32    1
    16     8     7   ar
    17    12    36    1
    18    12     7   ar
    19     7     1    1
    20    13     1    1
    21    13    18   ar
    22     1    19    1
    23    17    18   ar
    24    17    40    1
    25    18    41    1
    26    27     5    1
    27     5    28    1
    28     5     2    1
    29     5    26    1
    30    43    20    1
    31     2     3    1
    32     2     6    1
    33    19    42    1
    34    19    20    1
    35    19     3    1
    36    47    24    1
    37    20    21    2
    38    30     6    1
    39     3    23    1
    40     6    31    1
    41     6    29    1
    42    46    24    1
    43    24    48    1
    44    24     4    1
    45    50    25    1
    46    21     4    1
    47    21    22    1
    48    23    22    2
    49    23    45    1
    50     4    25    1
    51    22    44    1
    52    25    51    1
    53    25    49    1
