@<TRIPOS>MOLECULE
1,2
 42 44 0 0 0
SMALL
GASTEIGER

@<TRIPOS>ATOM
      1 P           4.5092    1.5807    3.8322 P.3     1  UNL1        0.0000
      2 SI          7.3176    2.4571    4.3005 Si      1  UNL1        0.0000
      3 C           3.3007    1.1322    5.1281 C.ar    1  UNL1        0.0000
      4 C           3.5849    0.2644    6.1775 C.ar    1  UNL1        0.0000
      5 H           4.5488   -0.2231    6.2305 H       1  UNL1        0.0000
      6 C           5.6971    0.2061    4.0235 C.ar    1  UNL1        0.0000
      7 C           3.6185    0.9499    2.3531 C.ar    1  UNL1        0.0000
      8 C           7.9277   -0.4348    4.5989 C.ar    1  UNL1        0.0000
      9 H           8.9376   -0.1680    4.8743 H       1  UNL1        0.0000
     10 C           2.0545    1.7541    5.0881 C.ar    1  UNL1        0.0000
     11 H           1.8445    2.4433    4.2822 H       1  UNL1        0.0000
     12 C           4.2594    1.1848    1.1396 C.ar    1  UNL1        0.0000
     13 H           5.2048    1.7133    1.1468 H       1  UNL1        0.0000
     14 C           1.1010    1.4921    6.0536 C.ar    1  UNL1        0.0000
     15 H           0.1332    1.9716    6.0026 H       1  UNL1        0.0000
     16 C           7.4958    2.6921    2.3831 C.3     1  UNL1        0.0000
     17 H           8.2927    3.3810    2.1318 H       1  UNL1        0.0000
     18 H           6.5536    3.1530    2.0164 H       1  UNL1        0.0000
     19 H           7.6389    1.7598    1.8464 H       1  UNL1        0.0000
     20 C           7.5718   -1.7673    4.4790 C.ar    1  UNL1        0.0000
     21 H           8.3028   -2.5419    4.6648 H       1  UNL1        0.0000
     22 C           6.2815   -2.1149    4.1069 C.ar    1  UNL1        0.0000
     23 H           6.0102   -3.1559    3.9998 H       1  UNL1        0.0000
     24 C           2.4165    0.2504    2.3521 C.ar    1  UNL1        0.0000
     25 H           1.9059    0.0392    3.2810 H       1  UNL1        0.0000
     26 C           7.0004    0.5691    4.3624 C.ar    1  UNL1        0.0000
     27 C           9.0178    2.8124    5.1048 C.3     1  UNL1        0.0000
     28 H           9.8066    2.2949    4.5733 H       1  UNL1        0.0000
     29 H           9.0392    2.4953    6.1400 H       1  UNL1        0.0000
     30 H           9.2317    3.8728    5.0729 H       1  UNL1        0.0000
     31 C           1.8645   -0.1802    1.1576 C.ar    1  UNL1        0.0000
     32 H           0.9273   -0.7187    1.1677 H       1  UNL1        0.0000
     33 C           1.3894    0.6171    7.0892 C.ar    1  UNL1        0.0000
     34 H           0.6473    0.4107    7.8467 H       1  UNL1        0.0000
     35 C           2.6326    0.0111    7.1502 C.ar    1  UNL1        0.0000
     36 H           2.8631   -0.6672    7.9595 H       1  UNL1        0.0000
     37 C           2.5045    0.0695   -0.0441 C.ar    1  UNL1        0.0000
     38 H           2.0667   -0.2681   -0.9722 H       1  UNL1        0.0000
     39 C           5.3384   -1.1292    3.8794 C.ar    1  UNL1        0.0000
     40 H           4.3271   -1.3943    3.5983 H       1  UNL1        0.0000
     41 C           3.7119    0.7494   -0.0511 C.ar    1  UNL1        0.0000
     42 H           4.2226    0.9381   -0.9852 H       1  UNL1        0.0000
@<TRIPOS>BOND
     1    42    41    1
     2    38    37    1
     3    41    37   ar
     4    41    12   ar
     5    37    31   ar
     6    12    13    1
     7    12     7   ar
     8    31    32    1
     9    31    24   ar
    10    19    16    1
    11    18    16    1
    12    17    16    1
    13    24     7   ar
    14    24    25    1
    15     7     1    1
    16    16     2    1
    17    40    39    1
    18     1     6    1
    19     1     3    1
    20    39     6   ar
    21    39    22   ar
    22    23    22    1
    23     6    26   ar
    24    22    20   ar
    25    11    10    1
    26     2    26    1
    27     2    27    1
    28    26     8   ar
    29    20     8   ar
    30    20    21    1
    31    28    27    1
    32     8     9    1
    33    30    27    1
    34    10     3   ar
    35    10    14   ar
    36    27    29    1
    37     3     4   ar
    38    15    14    1
    39    14    33   ar
    40     4     5    1
    41     4    35   ar
    42    33    35   ar
    43    33    34    1
    44    35    36    1
