@<TRIPOS>MOLECULE
1,2
 44 45 0 0 0
SMALL
GASTEIGER

@<TRIPOS>ATOM
      1 P           9.1687   -0.2141    8.6561 P.3     1  UNL1        0.0000
      2 SI          8.9068    1.1979    6.8380 Si      1  UNL1        0.0000
      3 C           8.5059    0.0922    5.3119 C.3     1  UNL1        0.0000
      4 H           7.4648   -0.2155    5.2960 H       1  UNL1        0.0000
      5 H           9.1207   -0.8008    5.2943 H       1  UNL1        0.0000
      6 H           8.6958    0.6441    4.3977 H       1  UNL1        0.0000
      7 C           7.4192    2.4090    6.9728 C.3     1  UNL1        0.0000
      8 H           7.3714    3.0164    6.0753 H       1  UNL1        0.0000
      9 H           7.5313    3.0783    7.8172 H       1  UNL1        0.0000
     10 H           6.4701    1.8912    7.0728 H       1  UNL1        0.0000
     11 C           8.9424   -2.0231    8.2535 C.3     1  UNL1        0.0000
     12 H           9.4507   -2.1436    7.2887 H       1  UNL1        0.0000
     13 C           7.4671   -2.3751    8.0687 C.3     1  UNL1        0.0000
     14 H           6.9344   -2.2374    9.0124 H       1  UNL1        0.0000
     15 H           7.0193   -1.7041    7.3324 H       1  UNL1        0.0000
     16 C           7.3230   -3.8257    7.6147 C.3     1  UNL1        0.0000
     17 H           6.2657   -4.0770    7.5042 H       1  UNL1        0.0000
     18 H           7.7989   -3.9473    6.6384 H       1  UNL1        0.0000
     19 C           7.9797   -4.7705    8.6174 C.3     1  UNL1        0.0000
     20 H           7.8898   -5.8024    8.2709 H       1  UNL1        0.0000
     21 H           7.4637   -4.6945    9.5776 H       1  UNL1        0.0000
     22 C           9.4508   -4.4115    8.8066 C.3     1  UNL1        0.0000
     23 H           9.9799   -4.5446    7.8592 H       1  UNL1        0.0000
     24 H           9.9064   -5.0806    9.5405 H       1  UNL1        0.0000
     25 C           9.5886   -2.9625    9.2679 C.3     1  UNL1        0.0000
     26 H          10.6420   -2.7042    9.3951 H       1  UNL1        0.0000
     27 H           9.1022   -2.8491   10.2391 H       1  UNL1        0.0000
     28 C           8.4437    0.0092   10.3681 C.3     1  UNL1        0.0000
     29 H           7.8818   -0.8955   10.6293 H       1  UNL1        0.0000
     30 C           7.5016    1.2082   10.3962 C.3     1  UNL1        0.0000
     31 H           6.6616    1.0307    9.7202 H       1  UNL1        0.0000
     32 H           8.0403    2.0868   10.0371 H       1  UNL1        0.0000
     33 C           6.9940    1.4698   11.8114 C.3     1  UNL1        0.0000
     34 H           6.3365    2.3418   11.8120 H       1  UNL1        0.0000
     35 H           6.4116    0.6109   12.1556 H       1  UNL1        0.0000
     36 C           8.1671    1.6990   12.7588 C.3     1  UNL1        0.0000
     37 H           7.8007    1.8929   13.7694 H       1  UNL1        0.0000
     38 H           8.7292    2.5750   12.4288 H       1  UNL1        0.0000
     39 C           9.0866    0.4823   12.7604 C.3     1  UNL1        0.0000
     40 H           8.5353   -0.3874   13.1284 H       1  UNL1        0.0000
     41 H           9.9304    0.6515   13.4332 H       1  UNL1        0.0000
     42 C           9.5977    0.2016   11.3513 C.3     1  UNL1        0.0000
     43 H          10.2302   -0.6898   11.3495 H       1  UNL1        0.0000
     44 H          10.2090    1.0383   10.9996 H       1  UNL1        0.0000
@<TRIPOS>BOND
     1     6     3    1
     2     5     3    1
     3     4     3    1
     4     3     2    1
     5     8     7    1
     6    18    16    1
     7     2     7    1
     8     2     1    1
     9     7    10    1
    10     7     9    1
    11    12    11    1
    12    15    13    1
    13    17    16    1
    14    16    13    1
    15    16    19    1
    16    23    22    1
    17    13    11    1
    18    13    14    1
    19    11     1    1
    20    11    25    1
    21    20    19    1
    22    19    22    1
    23    19    21    1
    24     1    28    1
    25    22    25    1
    26    22    24    1
    27    25    26    1
    28    25    27    1
    29    31    30    1
    30    32    30    1
    31    28    30    1
    32    28    29    1
    33    28    42    1
    34    30    33    1
    35    44    42    1
    36    43    42    1
    37    42    39    1
    38    33    34    1
    39    33    35    1
    40    33    36    1
    41    38    36    1
    42    36    39    1
    43    36    37    1
    44    39    40    1
    45    39    41    1
