@<TRIPOS>MOLECULE
1,2
 38 39 0 0 0
SMALL
GASTEIGER

@<TRIPOS>ATOM
      1 P           4.9715    4.1391    0.4336 P.3     1  UNL1        0.0000
      2 SI          1.9618    3.2996    0.1095 Si      1  UNL1        0.0000
      3 C           2.5667    5.0166   -0.5738 C.3     1  UNL1        0.0000
      4 C           4.0312    4.8944   -0.9546 C.3     1  UNL1        0.0000
      5 C           0.2031    3.6863    0.8128 C.3     1  UNL1        0.0000
      6 C           1.5539    2.2903   -1.4910 C.3     1  UNL1        0.0000
      7 C           5.5866    5.5281    1.4424 C.ar    1  UNL1        0.0000
      8 C           5.1549    6.8448    1.3341 C.ar    1  UNL1        0.0000
      9 C           5.6956    7.8196    2.1563 C.ar    1  UNL1        0.0000
     10 C           6.6603    7.4876    3.0925 C.ar    1  UNL1        0.0000
     11 C           7.0884    6.1739    3.2096 C.ar    1  UNL1        0.0000
     12 C           6.5555    5.1985    2.3887 C.ar    1  UNL1        0.0000
     13 C           6.5438    3.7438   -0.4078 C.ar    1  UNL1        0.0000
     14 C           7.3062    4.7954   -0.9129 C.ar    1  UNL1        0.0000
     15 C           8.4812    4.5396   -1.5924 C.ar    1  UNL1        0.0000
     16 C           8.9112    3.2337   -1.7694 C.ar    1  UNL1        0.0000
     17 C           8.1600    2.1865   -1.2656 C.ar    1  UNL1        0.0000
     18 C           6.9782    2.4390   -0.5902 C.ar    1  UNL1        0.0000
     19 H           1.9822    5.3297   -1.4391 H       1  UNL1        0.0000
     20 H           2.4479    5.7857    0.1903 H       1  UNL1        0.0000
     21 H           4.4851    5.8427   -1.2601 H       1  UNL1        0.0000
     22 H           4.1365    4.1886   -1.7861 H       1  UNL1        0.0000
     23 H           0.2177    4.4148    1.6158 H       1  UNL1        0.0000
     24 H          -0.4167    4.0865    0.0180 H       1  UNL1        0.0000
     25 H          -0.2784    2.7882    1.1814 H       1  UNL1        0.0000
     26 H           0.8184    2.8171   -2.0911 H       1  UNL1        0.0000
     27 H           2.4358    2.1308   -2.1026 H       1  UNL1        0.0000
     28 H           1.1441    1.3147   -1.2509 H       1  UNL1        0.0000
     29 H           4.3953    7.1152    0.6149 H       1  UNL1        0.0000
     30 H           5.3600    8.8431    2.0652 H       1  UNL1        0.0000
     31 H           7.0781    8.2526    3.7307 H       1  UNL1        0.0000
     32 H           7.8402    5.9129    3.9404 H       1  UNL1        0.0000
     33 H           6.8778    4.1676    2.4694 H       1  UNL1        0.0000
     34 H           6.9815    5.8169   -0.7645 H       1  UNL1        0.0000
     35 H           9.0669    5.3604   -1.9813 H       1  UNL1        0.0000
     36 H           9.8341    3.0364   -2.2954 H       1  UNL1        0.0000
     37 H           8.4965    1.1682   -1.3946 H       1  UNL1        0.0000
     38 H           6.4005    1.6222   -0.1835 H       1  UNL1        0.0000
@<TRIPOS>BOND
     1    36    16    1
     2    27     6    1
     3    26     6    1
     4    35    15    1
     5    22     4    1
     6    16    15   ar
     7    16    17   ar
     8    15    14   ar
     9     6    28    1
    10     6     2    1
    11    19     3    1
    12    37    17    1
    13    17    18   ar
    14    21     4    1
    15     4     3    1
    16     4     1    1
    17    14    34    1
    18    14    13   ar
    19    18    13   ar
    20    18    38    1
    21     3     2    1
    22     3    20    1
    23    13     1    1
    24    24     5    1
    25     2     5    1
    26     1     7    1
    27    29     8    1
    28     5    25    1
    29     5    23    1
    30     8     7   ar
    31     8     9   ar
    32     7    12   ar
    33    30     9    1
    34     9    10   ar
    35    12    33    1
    36    12    11   ar
    37    10    11   ar
    38    10    31    1
    39    11    32    1
