@<TRIPOS>MOLECULE
1,2
 38 39 0 0 0
SMALL
GASTEIGER

@<TRIPOS>ATOM
      1 P           0.7101    3.8687   -1.3148 P.3     1  UNL1        0.0000
      2 SI          0.0918    6.8223   -1.2019 Si      1  UNL1        0.0000
      3 C           1.7857    7.7583   -1.4591 C.3     1  UNL1        0.0000
      4 C          -1.1044    8.3298   -1.4550 C.3     1  UNL1        0.0000
      5 C          -0.0135    5.9121   -2.9117 C.3     1  UNL1        0.0000
      6 C           1.0483    4.8356   -2.8497 C.3     1  UNL1        0.0000
      7 C           2.3201    3.0141   -1.1124 C.ar    1  UNL1        0.0000
      8 C           3.3687    3.8519   -0.7348 C.ar    1  UNL1        0.0000
      9 C           4.6299    3.3485   -0.4893 C.ar    1  UNL1        0.0000
     10 C           4.8590    1.9842   -0.5941 C.ar    1  UNL1        0.0000
     11 C           3.8196    1.1397   -0.9413 C.ar    1  UNL1        0.0000
     12 C           2.5563    1.6469   -1.1992 C.ar    1  UNL1        0.0000
     13 C          -0.3209    2.5479   -2.0699 C.ar    1  UNL1        0.0000
     14 C          -1.6010    2.3537   -1.5725 C.ar    1  UNL1        0.0000
     15 C          -2.4524    1.4225   -2.1386 C.ar    1  UNL1        0.0000
     16 C          -2.0253    0.6696   -3.2189 C.ar    1  UNL1        0.0000
     17 C          -0.7504    0.8591   -3.7289 C.ar    1  UNL1        0.0000
     18 C           0.0969    1.7944   -3.1639 C.ar    1  UNL1        0.0000
     19 H           2.6505    7.1174   -1.3187 H       1  UNL1        0.0000
     20 H           1.8312    8.1506   -2.4711 H       1  UNL1        0.0000
     21 H           1.8890    8.6007   -0.7827 H       1  UNL1        0.0000
     22 H          -1.0947    8.9896   -0.5956 H       1  UNL1        0.0000
     23 H          -0.7787    8.9077   -2.3134 H       1  UNL1        0.0000
     24 H          -2.1316    8.0338   -1.6306 H       1  UNL1        0.0000
     25 H          -0.9899    5.4453   -3.0514 H       1  UNL1        0.0000
     26 H           0.1584    6.5762   -3.7582 H       1  UNL1        0.0000
     27 H           2.0382    5.2884   -2.7560 H       1  UNL1        0.0000
     28 H           1.0478    4.1784   -3.7249 H       1  UNL1        0.0000
     29 H           3.1617    4.9085   -0.6125 H       1  UNL1        0.0000
     30 H           5.4346    4.0123   -0.2056 H       1  UNL1        0.0000
     31 H           5.8420    1.5819   -0.3965 H       1  UNL1        0.0000
     32 H           3.9907    0.0745   -1.0123 H       1  UNL1        0.0000
     33 H           1.7600    0.9674   -1.4715 H       1  UNL1        0.0000
     34 H          -1.9126    2.9606   -0.7302 H       1  UNL1        0.0000
     35 H          -3.4493    1.2834   -1.7424 H       1  UNL1        0.0000
     36 H          -2.6836   -0.0605   -3.6673 H       1  UNL1        0.0000
     37 H          -0.4171    0.2753   -4.5757 H       1  UNL1        0.0000
     38 H           1.0874    1.9357   -3.5754 H       1  UNL1        0.0000
@<TRIPOS>BOND
     1    37    17    1
     2    26     5    1
     3    17    16   ar
     4    17    18   ar
     5    28     6    1
     6    36    16    1
     7    38    18    1
     8    16    15   ar
     9    18    13   ar
    10    25     5    1
    11     5     6    1
    12     5     2    1
    13     6    27    1
    14     6     1    1
    15    20     3    1
    16    23     4    1
    17    15    35    1
    18    15    14   ar
    19    13    14   ar
    20    13     1    1
    21    24     4    1
    22    14    34    1
    23    33    12    1
    24     3    19    1
    25     3     2    1
    26     3    21    1
    27     4     2    1
    28     4    22    1
    29     1     7    1
    30    12     7   ar
    31    12    11   ar
    32     7     8   ar
    33    32    11    1
    34    11    10   ar
    35     8    29    1
    36     8     9   ar
    37    10     9   ar
    38    10    31    1
    39     9    30    1
