@<TRIPOS>MOLECULE
1,2
 43 44 0 0 0
SMALL
GASTEIGER

@<TRIPOS>ATOM
      1 SI          0.1383    2.3920   18.0760 Si      1  UNL1        0.0000
      2 P          -0.6883    4.3950   15.6964 P.3     1  UNL1        0.0000
      3 C           1.5680    1.4204   17.2335 C.3     1  UNL1        0.0000
      4 H           2.1647    0.9141   17.9822 H       1  UNL1        0.0000
      5 H           2.2269    2.0684   16.6683 H       1  UNL1        0.0000
      6 H           1.1749    0.6664   16.5612 H       1  UNL1        0.0000
      7 C           0.1497    1.8982   19.9353 C.3     1  UNL1        0.0000
      8 H          -0.5436    2.5001   20.5119 H       1  UNL1        0.0000
      9 H           1.1314    1.9987   20.3790 H       1  UNL1        0.0000
     10 H          -0.1483    0.8596   20.0361 H       1  UNL1        0.0000
     11 O          -1.1499    1.4909   17.5193 O.2     1  UNL1        0.0000
     12 C          -2.4112    1.9028   17.2816 C.2     1  UNL1        0.0000
     13 C          -3.4188    1.5007   18.3125 C.3     1  UNL1        0.0000
     14 H          -4.4215    1.7744   18.0003 H       1  UNL1        0.0000
     15 H          -3.1873    1.9938   19.2547 H       1  UNL1        0.0000
     16 H          -3.3657    0.4258   18.4758 H       1  UNL1        0.0000
     17 C          -2.6906    2.5819   16.1703 C.2     1  UNL1        0.0000
     18 H          -3.6942    2.9177   15.9681 H       1  UNL1        0.0000
     19 C          -1.6203    2.8770   15.1723 C.3     1  UNL1        0.0000
     20 H          -2.0344    3.0248   14.1722 H       1  UNL1        0.0000
     21 H          -0.9084    2.0487   15.1544 H       1  UNL1        0.0000
     22 C           0.4520    4.5144   14.2686 C.ar    1  UNL1        0.0000
     23 C           1.3035    3.4360   14.0407 C.ar    1  UNL1        0.0000
     24 H           1.2336    2.5686   14.6798 H       1  UNL1        0.0000
     25 C           2.2338    3.4742   13.0197 C.ar    1  UNL1        0.0000
     26 H           2.8845    2.6285   12.8498 H       1  UNL1        0.0000
     27 C           2.3374    4.5998   12.2177 C.ar    1  UNL1        0.0000
     28 H           3.0658    4.6339   11.4209 H       1  UNL1        0.0000
     29 C           1.5068    5.6836   12.4464 C.ar    1  UNL1        0.0000
     30 H           1.5881    6.5667   11.8285 H       1  UNL1        0.0000
     31 C           0.5720    5.6452   13.4668 C.ar    1  UNL1        0.0000
     32 H          -0.0704    6.4976   13.6349 H       1  UNL1        0.0000
     33 C          -1.9715    5.6287   15.2525 C.ar    1  UNL1        0.0000
     34 C          -2.5122    5.7200   13.9721 C.ar    1  UNL1        0.0000
     35 H          -2.1450    5.0793   13.1816 H       1  UNL1        0.0000
     36 C          -3.5128    6.6348   13.7010 C.ar    1  UNL1        0.0000
     37 H          -3.9252    6.7000   12.7042 H       1  UNL1        0.0000
     38 C          -3.9895    7.4656   14.7028 C.ar    1  UNL1        0.0000
     39 H          -4.7725    8.1777   14.4867 H       1  UNL1        0.0000
     40 C          -3.4613    7.3774   15.9795 C.ar    1  UNL1        0.0000
     41 H          -3.8329    8.0196   16.7649 H       1  UNL1        0.0000
     42 C          -2.4580    6.4636   16.2494 C.ar    1  UNL1        0.0000
     43 H          -2.0388    6.3737   17.2404 H       1  UNL1        0.0000
@<TRIPOS>BOND
     1    28    27    1
     2    30    29    1
     3    27    29   ar
     4    27    25   ar
     5    29    31   ar
     6    37    36    1
     7    26    25    1
     8    25    23   ar
     9    35    34    1
    10    31    32    1
    11    31    22   ar
    12    36    34   ar
    13    36    38   ar
    14    34    33   ar
    15    23    22   ar
    16    23    24    1
    17    20    19    1
    18    22     2    1
    19    39    38    1
    20    38    40   ar
    21    21    19    1
    22    19     2    1
    23    19    17    1
    24    33     2    1
    25    33    42   ar
    26    18    17    1
    27    40    42   ar
    28    40    41    1
    29    17    12    2
    30    42    43    1
    31     6     3    1
    32     5     3    1
    33     3     4    1
    34     3     1    1
    35    12    11    1
    36    12    13    1
    37    11     1    1
    38    14    13    1
    39     1     7    1
    40    13    16    1
    41    13    15    1
    42     7    10    1
    43     7     9    1
    44     7     8    1
