@<TRIPOS>MOLECULE
1,2
 43 44 0 0 0
SMALL
GASTEIGER

@<TRIPOS>ATOM
      1 SI          0.1829    3.6570   17.7720 Si      1  UNL1        0.0000
      2 P           0.5348    2.2722   15.2569 P.3     1  UNL1        0.0000
      3 C           0.1486    2.6157   19.3917 C.3     1  UNL1        0.0000
      4 H          -0.2452    1.6148   19.2614 H       1  UNL1        0.0000
      5 H          -0.4558    3.1180   20.1346 H       1  UNL1        0.0000
      6 H           1.1545    2.5286   19.7889 H       1  UNL1        0.0000
      7 C           0.0775    5.4570   18.4315 C.3     1  UNL1        0.0000
      8 H           0.9124    5.6808   19.0862 H       1  UNL1        0.0000
      9 H          -0.8285    5.5712   19.0139 H       1  UNL1        0.0000
     10 H           0.0551    6.1956   17.6403 H       1  UNL1        0.0000
     11 O           1.7611    3.3482   17.3126 O.3     1  UNL1        0.0000
     12 C           2.0703    3.1260   15.9798 C.3     1  UNL1        0.0000
     13 C           3.3696    2.3184   15.8746 C.3     1  UNL1        0.0000
     14 H           4.1403    2.8403   16.4393 H       1  UNL1        0.0000
     15 H           3.6867    2.2468   14.8372 H       1  UNL1        0.0000
     16 H           3.2510    1.3208   16.2902 H       1  UNL1        0.0000
     17 C           2.2591    4.4086   15.2132 C.2     1  UNL1        0.0000
     18 H           2.2919    4.2925   14.1369 H       1  UNL1        0.0000
     19 C           2.4523    5.5836   15.7808 C.2     1  UNL1        0.0000
     20 H           2.4396    5.6872   16.8514 H       1  UNL1        0.0000
     21 H           2.6120    6.4764   15.2012 H       1  UNL1        0.0000
     22 C           0.7664    0.5105   15.6618 C.ar    1  UNL1        0.0000
     23 C           1.1163    0.1642   16.9659 C.ar    1  UNL1        0.0000
     24 H           1.3432    0.9462   17.6730 H       1  UNL1        0.0000
     25 C           1.1734   -1.1634   17.3463 C.ar    1  UNL1        0.0000
     26 H           1.4559   -1.4224   18.3564 H       1  UNL1        0.0000
     27 C           0.8605   -2.1623   16.4377 C.ar    1  UNL1        0.0000
     28 H           0.8992   -3.1996   16.7361 H       1  UNL1        0.0000
     29 C           0.4901   -1.8259   15.1462 C.ar    1  UNL1        0.0000
     30 H           0.2360   -2.6011   14.4372 H       1  UNL1        0.0000
     31 C           0.4383   -0.4984   14.7591 C.ar    1  UNL1        0.0000
     32 H           0.1457   -0.2443   13.7499 H       1  UNL1        0.0000
     33 C           0.8409    2.2836   13.4572 C.ar    1  UNL1        0.0000
     34 C           1.8302    1.5324   12.8270 C.ar    1  UNL1        0.0000
     35 H           2.4609    0.8739   13.4079 H       1  UNL1        0.0000
     36 C           1.9972    1.6204   11.4568 C.ar    1  UNL1        0.0000
     37 H           2.7676    1.0383   10.9717 H       1  UNL1        0.0000
     38 C           1.1798    2.4491   10.7041 C.ar    1  UNL1        0.0000
     39 H           1.3142    2.5111    9.6343 H       1  UNL1        0.0000
     40 C           0.1906    3.1949   11.3243 C.ar    1  UNL1        0.0000
     41 H          -0.4482    3.8403   10.7390 H       1  UNL1        0.0000
     42 C           0.0238    3.1113   12.6946 C.ar    1  UNL1        0.0000
     43 H          -0.7352    3.6872   13.2060 H       1  UNL1        0.0000
@<TRIPOS>BOND
     1    39    38    1
     2    38    40   ar
     3    38    36   ar
     4    41    40    1
     5    37    36    1
     6    40    42   ar
     7    36    34   ar
     8    42    43    1
     9    42    33   ar
    10    34    35    1
    11    34    33   ar
    12    33     2    1
    13    32    31    1
    14    18    17    1
    15    30    29    1
    16    31    29   ar
    17    31    22   ar
    18    15    13    1
    19    29    27   ar
    20    21    19    1
    21    17    19    2
    22    17    12    1
    23     2    22    1
    24     2    12    1
    25    22    23   ar
    26    19    20    1
    27    13    12    1
    28    13    16    1
    29    13    14    1
    30    12    11    1
    31    27    28    1
    32    27    25   ar
    33    23    25   ar
    34    23    24    1
    35    11     1    1
    36    25    26    1
    37    10     7    1
    38     1     7    1
    39     1     3    1
    40     7     9    1
    41     7     8    1
    42     4     3    1
    43     3     6    1
    44     3     5    1
