@<TRIPOS>MOLECULE
1,6
 38 39 0 0 0
SMALL
GASTEIGER

@<TRIPOS>ATOM
      1 SI          3.6430    2.4744    1.4798 Si      1  UNL1        0.0000
      2 C           3.2284    0.6366    1.9144 C.3     1  UNL1        0.0000
      3 C           5.3310    2.2896    0.5476 C.3     1  UNL1        0.0000
      4 C           4.2116    3.2398    3.1871 C.3     1  UNL1        0.0000
      5 C           3.1511    4.2281    3.6464 C.3     1  UNL1        0.0000
      6 P           2.5808    5.0723    2.1208 P.3     1  UNL1        0.0000
      7 C           1.5743    6.4726    2.7089 C.ar    1  UNL1        0.0000
      8 C           1.3787    7.5356    1.8291 C.ar    1  UNL1        0.0000
      9 C           0.5834    8.6046    2.1947 C.ar    1  UNL1        0.0000
     10 C          -0.0240    8.6242    3.4408 C.ar    1  UNL1        0.0000
     11 C           0.1720    7.5743    4.3219 C.ar    1  UNL1        0.0000
     12 C           0.9657    6.4999    3.9592 C.ar    1  UNL1        0.0000
     13 C           4.0889    5.9903    1.6646 C.ar    1  UNL1        0.0000
     14 C           4.7103    5.7497    0.4450 C.ar    1  UNL1        0.0000
     15 C           5.8562    6.4486    0.1062 C.ar    1  UNL1        0.0000
     16 C           6.3839    7.3858    0.9797 C.ar    1  UNL1        0.0000
     17 C           5.7630    7.6306    2.1943 C.ar    1  UNL1        0.0000
     18 C           4.6162    6.9386    2.5365 C.ar    1  UNL1        0.0000
     19 H           5.1498    3.7727    3.0343 H       1  UNL1        0.0000
     20 H           4.3862    2.4842    3.9514 H       1  UNL1        0.0000
     21 H           3.5222    4.9532    4.3785 H       1  UNL1        0.0000
     22 H           2.2993    3.6948    4.0815 H       1  UNL1        0.0000
     23 H           5.8342    3.2362    0.3900 H       1  UNL1        0.0000
     24 H           2.7064    0.1481    1.1005 H       1  UNL1        0.0000
     25 H           2.6274    0.5345    2.8115 H       1  UNL1        0.0000
     26 H           4.1544    0.0983    2.0790 H       1  UNL1        0.0000
     27 H           5.1850    1.8244   -0.4193 H       1  UNL1        0.0000
     28 H           5.9903    1.6527    1.1273 H       1  UNL1        0.0000
     29 H           1.8595    7.5141    0.8602 H       1  UNL1        0.0000
     30 H           0.4344    9.4241    1.5069 H       1  UNL1        0.0000
     31 H          -0.6489    9.4577    3.7259 H       1  UNL1        0.0000
     32 H          -0.2965    7.5898    5.2958 H       1  UNL1        0.0000
     33 H           1.1135    5.6869    4.6578 H       1  UNL1        0.0000
     34 H           4.2739    5.0103   -0.2231 H       1  UNL1        0.0000
     35 H           6.3369    6.2634   -0.8427 H       1  UNL1        0.0000
     36 H           7.2775    7.9309    0.7135 H       1  UNL1        0.0000
     37 H           6.1714    8.3651    2.8731 H       1  UNL1        0.0000
     38 H           4.1227    7.1394    3.4788 H       1  UNL1        0.0000
@<TRIPOS>BOND
     1    35    15    1
     2    27     3    1
     3    34    14    1
     4    15    14   ar
     5    15    16   ar
     6    23     3    1
     7    14    13   ar
     8     3    28    1
     9     3     1    1
    10    36    16    1
    11    29     8    1
    12    16    17   ar
    13    24     2    1
    14     1     2    1
    15     1     4    1
    16    30     9    1
    17    13     6    1
    18    13    18   ar
    19     8     9   ar
    20     8     7   ar
    21     2    26    1
    22     2    25    1
    23     6     7    1
    24     6     5    1
    25    17    18   ar
    26    17    37    1
    27     9    10   ar
    28    18    38    1
    29     7    12   ar
    30    19     4    1
    31     4     5    1
    32     4    20    1
    33    10    31    1
    34    10    11   ar
    35     5    22    1
    36     5    21    1
    37    12    11   ar
    38    12    33    1
    39    11    32    1
