@<TRIPOS>MOLECULE
1,2
 42 44 0 0 0
SMALL
GASTEIGER

@<TRIPOS>ATOM
      1 P          13.1016    7.4564   19.9483 P.3     1  UNL1        0.0000
      2 SI         11.2513    5.7184   18.0899 Si      1  UNL1        0.0000
      3 C           9.6825    5.9746   16.9912 C.3     1  UNL1        0.0000
      4 H           9.3263    6.9980   16.9732 H       1  UNL1        0.0000
      5 H           8.8807    5.3519   17.3715 H       1  UNL1        0.0000
      6 H           9.8773    5.6637   15.9709 H       1  UNL1        0.0000
      7 C          11.3710    3.7866   18.1379 C.3     1  UNL1        0.0000
      8 H          11.6753    3.3744   17.1820 H       1  UNL1        0.0000
      9 H          10.4021    3.3658   18.3853 H       1  UNL1        0.0000
     10 H          12.0809    3.4496   18.8855 H       1  UNL1        0.0000
     11 C          10.7200    6.0803   19.8998 C.ar    1  UNL1        0.0000
     12 C          11.6084    6.7620   20.7265 C.ar    1  UNL1        0.0000
     13 C          11.3567    6.9029   22.0874 C.ar    1  UNL1        0.0000
     14 H          12.0716    7.4129   22.7199 H       1  UNL1        0.0000
     15 C          10.1925    6.3898   22.6265 C.ar    1  UNL1        0.0000
     16 H           9.9923    6.4971   23.6831 H       1  UNL1        0.0000
     17 C           9.2823    5.7389   21.8070 C.ar    1  UNL1        0.0000
     18 H           8.3678    5.3438   22.2268 H       1  UNL1        0.0000
     19 C           9.5523    5.5806   20.4598 C.ar    1  UNL1        0.0000
     20 H           8.8476    5.0551   19.8321 H       1  UNL1        0.0000
     21 C          14.3765    6.8774   21.1248 C.ar    1  UNL1        0.0000
     22 C          14.7569    7.6363   22.2284 C.ar    1  UNL1        0.0000
     23 H          14.3496    8.6256   22.3819 H       1  UNL1        0.0000
     24 C          15.6726    7.1366   23.1371 C.ar    1  UNL1        0.0000
     25 H          15.9637    7.7398   23.9854 H       1  UNL1        0.0000
     26 C          16.2155    5.8754   22.9639 C.ar    1  UNL1        0.0000
     27 H          16.9343    5.4918   23.6732 H       1  UNL1        0.0000
     28 C          15.8330    5.1102   21.8752 C.ar    1  UNL1        0.0000
     29 H          16.2509    4.1241   21.7325 H       1  UNL1        0.0000
     30 C          14.9174    5.6068   20.9670 C.ar    1  UNL1        0.0000
     31 H          14.6277    5.0107   20.1131 H       1  UNL1        0.0000
     32 C          12.9993    9.2207   20.4095 C.ar    1  UNL1        0.0000
     33 C          14.1309   10.0203   20.2528 C.ar    1  UNL1        0.0000
     34 H          15.0452    9.5752   19.8856 H       1  UNL1        0.0000
     35 C          14.0838   11.3671   20.5634 C.ar    1  UNL1        0.0000
     36 H          14.9674   11.9765   20.4386 H       1  UNL1        0.0000
     37 C          12.9108   11.9327   21.0371 C.ar    1  UNL1        0.0000
     38 H          12.8755   12.9836   21.2850 H       1  UNL1        0.0000
     39 C          11.7825   11.1448   21.1928 C.ar    1  UNL1        0.0000
     40 H          10.8644   11.5801   21.5617 H       1  UNL1        0.0000
     41 C          11.8212    9.7979   20.8750 C.ar    1  UNL1        0.0000
     42 H          10.9323    9.1939   20.9925 H       1  UNL1        0.0000
@<TRIPOS>BOND
     1     6     3    1
     2     4     3    1
     3     3     5    1
     4     3     2    1
     5     8     7    1
     6     2     7    1
     7     2    11    1
     8     7     9    1
     9     7    10    1
    10    20    19    1
    11    34    33    1
    12    11    19   ar
    13    11    12   ar
    14     1    32    1
    15     1    12    1
    16     1    21    1
    17    31    30    1
    18    33    32   ar
    19    33    35   ar
    20    32    41   ar
    21    36    35    1
    22    19    17   ar
    23    35    37   ar
    24    12    13   ar
    25    41    42    1
    26    41    39   ar
    27    30    21   ar
    28    30    28   ar
    29    37    39   ar
    30    37    38    1
    31    21    22   ar
    32    39    40    1
    33    29    28    1
    34    17    18    1
    35    17    15   ar
    36    28    26   ar
    37    13    15   ar
    38    13    14    1
    39    22    23    1
    40    22    24   ar
    41    15    16    1
    42    26    24   ar
    43    26    27    1
    44    24    25    1
