@<TRIPOS>MOLECULE
1,2
 58 60 0 0 0
SMALL
GASTEIGER

@<TRIPOS>ATOM
      1 P           2.2897    9.1406    1.9798 P.3     1  UNL1        0.0000
      2 SI          2.7348   10.0673    5.3000 Si      1  UNL1        0.0000
      3 H           2.2911   11.0733    6.3187 H       1  UNL1        0.0000
      4 N           3.6567   11.5025    4.2148 N.4     1  UNL1        0.0000
      5 C           5.6371   11.5445    2.6404 C.3     1  UNL1        0.0000
      6 H           5.6922   12.6352    2.6546 H       1  UNL1        0.0000
      7 H           6.4038   11.1697    3.3222 H       1  UNL1        0.0000
      8 C           4.2687   11.0264    3.0004 C.3     1  UNL1        0.0000
      9 C           3.7507   10.2687    1.9957 C.3     1  UNL1        0.0000
     10 C           4.6950   10.3259    0.8587 C.ar    1  UNL1        0.0000
     11 C           4.6101    9.9010   -0.4622 C.ar    1  UNL1        0.0000
     12 H           3.7227    9.4421   -0.8620 H       1  UNL1        0.0000
     13 C           5.6793   10.1156   -1.3155 C.ar    1  UNL1        0.0000
     14 H           5.6091    9.7819   -2.3393 H       1  UNL1        0.0000
     15 C           6.8299   10.7572   -0.8842 C.ar    1  UNL1        0.0000
     16 H           7.6533   10.9032   -1.5652 H       1  UNL1        0.0000
     17 C           6.9054   11.2441    0.4104 C.ar    1  UNL1        0.0000
     18 H           7.7750   11.7869    0.7482 H       1  UNL1        0.0000
     19 C           5.8339   11.0396    1.2542 C.ar    1  UNL1        0.0000
     20 C           3.1109    7.6109    1.2685 C.3     1  UNL1        0.0000
     21 H           3.4097    7.8323    0.2424 H       1  UNL1        0.0000
     22 C           4.3549    7.2203    2.0569 C.3     1  UNL1        0.0000
     23 H           4.1132    7.0579    3.1064 H       1  UNL1        0.0000
     24 H           5.1232    7.9870    1.9843 H       1  UNL1        0.0000
     25 H           4.7644    6.2951    1.6561 H       1  UNL1        0.0000
     26 C           2.1088    6.4653    1.2470 C.3     1  UNL1        0.0000
     27 H           2.5889    5.5531    0.8972 H       1  UNL1        0.0000
     28 H           1.2734    6.6813    0.5841 H       1  UNL1        0.0000
     29 H           1.7352    6.2907    2.2541 H       1  UNL1        0.0000
     30 C           1.3023    9.7909    0.5187 C.3     1  UNL1        0.0000
     31 H           1.7311    9.3507   -0.3871 H       1  UNL1        0.0000
     32 C           1.3637   11.3112    0.4201 C.3     1  UNL1        0.0000
     33 H           0.8157   11.6409   -0.4605 H       1  UNL1        0.0000
     34 H           2.3869   11.6698    0.3362 H       1  UNL1        0.0000
     35 H           0.8974   11.7668    1.2918 H       1  UNL1        0.0000
     36 C          -0.1467    9.3386    0.6367 C.3     1  UNL1        0.0000
     37 H          -0.5777    9.7325    1.5551 H       1  UNL1        0.0000
     38 H          -0.2222    8.2545    0.6463 H       1  UNL1        0.0000
     39 H          -0.7274    9.7137   -0.2042 H       1  UNL1        0.0000
     40 C           2.6551   12.5077    3.8413 C.3     1  UNL1        0.0000
     41 H           3.1120   13.3126    3.2627 H       1  UNL1        0.0000
     42 H           2.2058   12.9256    4.7385 H       1  UNL1        0.0000
     43 H           1.8793   12.0338    3.2469 H       1  UNL1        0.0000
     44 C           4.6188   12.1433    5.1153 C.3     1  UNL1        0.0000
     45 H           5.4131   11.4502    5.3759 H       1  UNL1        0.0000
     46 H           4.1052   12.4239    6.0314 H       1  UNL1        0.0000
     47 H           5.0451   13.0461    4.6786 H       1  UNL1        0.0000
     48 C           4.2669    9.3069    6.1447 C.ar    1  UNL1        0.0000
     49 C           4.3215    9.1907    7.5316 C.ar    1  UNL1        0.0000
     50 H           3.5119    9.5858    8.1270 H       1  UNL1        0.0000
     51 C           5.3949    8.5833    8.1583 C.ar    1  UNL1        0.0000
     52 H           5.4159    8.5046    9.2348 H       1  UNL1        0.0000
     53 C           6.4413    8.0771    7.4059 C.ar    1  UNL1        0.0000
     54 H           7.2800    7.6030    7.8922 H       1  UNL1        0.0000
     55 C           6.4054    8.1804    6.0246 C.ar    1  UNL1        0.0000
     56 H           7.2171    7.7859    5.4312 H       1  UNL1        0.0000
     57 C           5.3268    8.7835    5.4046 C.ar    1  UNL1        0.0000
     58 H           5.3011    8.8531    4.3260 H       1  UNL1        0.0000
@<TRIPOS>BOND
     1    14    13    1
     2    16    15    1
     3    13    15   ar
     4    13    11   ar
     5    15    17   ar
     6    12    11    1
     7    11    10   ar
     8    33    32    1
     9    31    30    1
    10    39    36    1
    11    21    20    1
    12    34    32    1
    13    17    18    1
    14    17    19   ar
    15    32    30    1
    16    32    35    1
    17    30    36    1
    18    30     1    1
    19    28    26    1
    20    36    38    1
    21    36    37    1
    22    10    19   ar
    23    10     9    1
    24    27    26    1
    25    26    20    1
    26    26    29    1
    27    19     5    1
    28    20     1    1
    29    20    22    1
    30    25    22    1
    31     1     9    1
    32    24    22    1
    33     9     8    1
    34    22    23    1
    35     5     6    1
    36     5     8    1
    37     5     7    1
    38     8     4    1
    39    43    40    1
    40    41    40    1
    41    40     4    1
    42    40    42    1
    43     4    44    1
    44     4     2    1
    45    58    57    1
    46    47    44    1
    47    44    45    1
    48    44    46    1
    49     2    48    1
    50     2     3    1
    51    57    55   ar
    52    57    48   ar
    53    56    55    1
    54    55    53   ar
    55    48    49   ar
    56    53    54    1
    57    53    51   ar
    58    49    50    1
    59    49    51   ar
    60    51    52    1
