@<TRIPOS>MOLECULE
1,2
 42 44 0 0 0
SMALL
GASTEIGER

@<TRIPOS>ATOM
      1 SI         12.5360    4.8315    3.7035 Si      1  UNL1        0.0000
      2 P          10.0109    5.8463    2.3749 P.3     1  UNL1        0.0000
      3 C          13.2127    3.3696    2.6227 C.3     1  UNL1        0.0000
      4 H          14.0378    3.7094    2.0052 H       1  UNL1        0.0000
      5 H          12.4525    2.9566    1.9671 H       1  UNL1        0.0000
      6 H          13.5814    2.5697    3.2553 H       1  UNL1        0.0000
      7 C          14.0165    5.1848    4.8920 C.3     1  UNL1        0.0000
      8 H          14.9561    5.0186    4.3774 H       1  UNL1        0.0000
      9 H          14.0008    4.5266    5.7521 H       1  UNL1        0.0000
     10 H          14.0031    6.2061    5.2565 H       1  UNL1        0.0000
     11 C          11.4866    6.8170    1.9637 C.ar    1  UNL1        0.0000
     12 C          12.6765    6.3457    2.5171 C.ar    1  UNL1        0.0000
     13 C          13.8500    7.0077    2.1911 C.ar    1  UNL1        0.0000
     14 H          14.7843    6.6598    2.6046 H       1  UNL1        0.0000
     15 C          13.8389    8.1102    1.3526 C.ar    1  UNL1        0.0000
     16 H          14.7629    8.6196    1.1168 H       1  UNL1        0.0000
     17 C          12.6457    8.5681    0.8173 C.ar    1  UNL1        0.0000
     18 H          12.6368    9.4316    0.1672 H       1  UNL1        0.0000
     19 C          11.4617    7.9173    1.1162 C.ar    1  UNL1        0.0000
     20 H          10.5273    8.2691    0.6989 H       1  UNL1        0.0000
     21 C           9.9430    4.7015    0.9548 C.ar    1  UNL1        0.0000
     22 C          11.0189    4.5008    0.0982 C.ar    1  UNL1        0.0000
     23 H          11.9235    5.0777    0.2244 H       1  UNL1        0.0000
     24 C          10.9302    3.5584   -0.9121 C.ar    1  UNL1        0.0000
     25 H          11.7702    3.4050   -1.5742 H       1  UNL1        0.0000
     26 C           9.7765    2.8100   -1.0729 C.ar    1  UNL1        0.0000
     27 H           9.7152    2.0728   -1.8601 H       1  UNL1        0.0000
     28 C           8.7021    3.0039   -0.2185 C.ar    1  UNL1        0.0000
     29 H           7.8004    2.4202   -0.3348 H       1  UNL1        0.0000
     30 C           8.7868    3.9408    0.7920 C.ar    1  UNL1        0.0000
     31 H           7.9562    4.0941    1.4666 H       1  UNL1        0.0000
     32 C           8.6702    7.0211    1.9748 C.ar    1  UNL1        0.0000
     33 C           8.0135    7.0729    0.7497 C.ar    1  UNL1        0.0000
     34 H           8.2715    6.3758   -0.0348 H       1  UNL1        0.0000
     35 C           7.0268    8.0202    0.5373 C.ar    1  UNL1        0.0000
     36 H           6.5166    8.0551   -0.4148 H       1  UNL1        0.0000
     37 C           6.6917    8.9223    1.5341 C.ar    1  UNL1        0.0000
     38 H           5.9170    9.6553    1.3615 H       1  UNL1        0.0000
     39 C           7.3525    8.8836    2.7519 C.ar    1  UNL1        0.0000
     40 H           7.0959    9.5837    3.5345 H       1  UNL1        0.0000
     41 C           8.3358    7.9370    2.9682 C.ar    1  UNL1        0.0000
     42 H           8.8496    7.8888    3.9173 H       1  UNL1        0.0000
@<TRIPOS>BOND
     1    27    26    1
     2    25    24    1
     3    26    24   ar
     4    26    28   ar
     5    24    22   ar
     6    36    35    1
     7    29    28    1
     8    28    30   ar
     9    34    33    1
    10    22    23    1
    11    22    21   ar
    12    18    17    1
    13    35    33   ar
    14    35    37   ar
    15    20    19    1
    16    33    32   ar
    17    30    21   ar
    18    30    31    1
    19    17    19   ar
    20    17    15   ar
    21    21     2    1
    22    19    11   ar
    23    16    15    1
    24    15    13   ar
    25    38    37    1
    26    37    39   ar
    27    11     2    1
    28    11    12   ar
    29     5     3    1
    30    32     2    1
    31    32    41   ar
    32     4     3    1
    33    13    12   ar
    34    13    14    1
    35    12     1    1
    36     3     6    1
    37     3     1    1
    38    39    41   ar
    39    39    40    1
    40    41    42    1
    41     1     7    1
    42     8     7    1
    43     7    10    1
    44     7     9    1
