@<TRIPOS>MOLECULE
1,2
 42 44 0 0 0
SMALL
GASTEIGER

@<TRIPOS>ATOM
      1 P           1.6242    5.7841    1.5221 P.3     1  UNL1        0.0000
      2 SI          0.9233    2.8457    1.2310 Si      1  UNL1        0.0000
      3 C           1.3723    1.0101    1.6231 C.3     1  UNL1        0.0000
      4 H           0.5858    0.5200    2.1832 H       1  UNL1        0.0000
      5 H           2.2875    0.9336    2.2000 H       1  UNL1        0.0000
      6 H           1.5035    0.4547    0.7014 H       1  UNL1        0.0000
      7 C          -0.2127    2.6800   -0.3311 C.3     1  UNL1        0.0000
      8 H          -0.6490    3.6293   -0.6266 H       1  UNL1        0.0000
      9 H          -1.0216    1.9833   -0.1402 H       1  UNL1        0.0000
     10 H           0.3589    2.2994   -1.1715 H       1  UNL1        0.0000
     11 C           2.9063    4.8108    0.6910 C.ar    1  UNL1        0.0000
     12 C           2.5942    3.4663    0.4925 C.ar    1  UNL1        0.0000
     13 C           3.5095    2.6855   -0.1964 C.ar    1  UNL1        0.0000
     14 H           3.2910    1.6425   -0.3667 H       1  UNL1        0.0000
     15 C           4.7005    3.2210   -0.6589 C.ar    1  UNL1        0.0000
     16 H           5.4062    2.5939   -1.1854 H       1  UNL1        0.0000
     17 C           4.9957    4.5579   -0.4452 C.ar    1  UNL1        0.0000
     18 H           5.9274    4.9733   -0.8020 H       1  UNL1        0.0000
     19 C           4.0934    5.3632    0.2271 C.ar    1  UNL1        0.0000
     20 H           4.3153    6.4089    0.3950 H       1  UNL1        0.0000
     21 C           2.5545    7.2416    2.1051 C.ar    1  UNL1        0.0000
     22 C           3.2416    7.1009    3.3078 C.ar    1  UNL1        0.0000
     23 H           3.1744    6.1667    3.8471 H       1  UNL1        0.0000
     24 C           3.9955    8.1434    3.8128 C.ar    1  UNL1        0.0000
     25 H           4.5171    8.0251    4.7517 H       1  UNL1        0.0000
     26 C           4.0677    9.3399    3.1167 C.ar    1  UNL1        0.0000
     27 H           4.6484   10.1607    3.5112 H       1  UNL1        0.0000
     28 C           3.3947    9.4822    1.9141 C.ar    1  UNL1        0.0000
     29 H           3.4567   10.4127    1.3687 H       1  UNL1        0.0000
     30 C           2.6420    8.4393    1.4030 C.ar    1  UNL1        0.0000
     31 H           2.1232    8.5563    0.4625 H       1  UNL1        0.0000
     32 C           0.7009    6.4497    0.0971 C.ar    1  UNL1        0.0000
     33 C          -0.2462    7.4418    0.3436 C.ar    1  UNL1        0.0000
     34 H          -0.3611    7.8294    1.3464 H       1  UNL1        0.0000
     35 C          -1.0291    7.9306   -0.6834 C.ar    1  UNL1        0.0000
     36 H          -1.7602    8.6995   -0.4809 H       1  UNL1        0.0000
     37 C          -0.8800    7.4269   -1.9663 C.ar    1  UNL1        0.0000
     38 H          -1.4965    7.8031   -2.7694 H       1  UNL1        0.0000
     39 C           0.0560    6.4376   -2.2158 C.ar    1  UNL1        0.0000
     40 H           0.1708    6.0414   -3.2144 H       1  UNL1        0.0000
     41 C           0.8451    5.9455   -1.1903 C.ar    1  UNL1        0.0000
     42 H           1.5695    5.1687   -1.3874 H       1  UNL1        0.0000
@<TRIPOS>BOND
     1    40    39    1
     2    38    37    1
     3    39    37   ar
     4    39    41   ar
     5    37    35   ar
     6    42    41    1
     7    41    32   ar
     8    16    15    1
     9    10     7    1
    10    18    17    1
    11    35    36    1
    12    35    33   ar
    13    15    17   ar
    14    15    13   ar
    15     8     7    1
    16    17    19   ar
    17    14    13    1
    18     7     9    1
    19     7     2    1
    20    13    12   ar
    21    32    33   ar
    22    32     1    1
    23    19    20    1
    24    19    11   ar
    25    33    34    1
    26    31    30    1
    27    12    11   ar
    28    12     2    1
    29    11     1    1
    30     6     3    1
    31     2     3    1
    32    29    28    1
    33    30    28   ar
    34    30    21   ar
    35     1    21    1
    36     3     4    1
    37     3     5    1
    38    28    26   ar
    39    21    22   ar
    40    26    27    1
    41    26    24   ar
    42    22    24   ar
    43    22    23    1
    44    24    25    1
