@<TRIPOS>MOLECULE
1,2
 48 48 0 0 0
SMALL
GASTEIGER

@<TRIPOS>ATOM
      1 P          -2.7367    5.8118   11.4873 P.3     1  UNL1        0.0000
      2 SI         -1.2922    5.0503    9.8772 Si      1  UNL1        0.0000
      3 C          -1.2739    3.1983    9.3341 C.3     1  UNL1        0.0000
      4 C          -1.7269    6.1083    8.3242 C.3     1  UNL1        0.0000
      5 C          -3.4185    4.5655   12.6042 C.ar    1  UNL1        0.0000
      6 C          -2.9872    3.2413   12.5516 C.ar    1  UNL1        0.0000
      7 C          -3.4938    2.3053   13.4322 C.ar    1  UNL1        0.0000
      8 C          -4.4401    2.6741   14.3765 C.ar    1  UNL1        0.0000
      9 C          -4.8812    3.9869   14.4292 C.ar    1  UNL1        0.0000
     10 C          -4.3761    4.9265   13.5507 C.ar    1  UNL1        0.0000
     11 N          -4.0445    6.8591   11.2109 N.3     1  UNL1        0.0000
     12 SI         -5.3880    6.1795   10.2725 Si      1  UNL1        0.0000
     13 C          -4.8789    4.5386    9.4575 C.3     1  UNL1        0.0000
     14 C          -6.8938    5.7695   11.3757 C.3     1  UNL1        0.0000
     15 C          -5.8735    7.4254    8.9183 C.3     1  UNL1        0.0000
     16 SI         -4.0457    8.5055   11.8691 Si      1  UNL1        0.0000
     17 C          -2.8676    8.5572   13.3592 C.3     1  UNL1        0.0000
     18 C          -5.7857    8.9363   12.5258 C.3     1  UNL1        0.0000
     19 C          -3.6060    9.7686   10.5161 C.3     1  UNL1        0.0000
     20 H          -0.7618    2.5652   10.0512 H       1  UNL1        0.0000
     21 H          -0.7403    3.1168    8.3932 H       1  UNL1        0.0000
     22 H          -2.2740    2.8043    9.1850 H       1  UNL1        0.0000
     23 H          -2.2929    6.9851    8.6311 H       1  UNL1        0.0000
     24 H          -2.3004    5.5715    7.5738 H       1  UNL1        0.0000
     25 H          -0.8157    6.4573    7.8469 H       1  UNL1        0.0000
     26 H          -2.2608    2.9526   11.8063 H       1  UNL1        0.0000
     27 H          -3.1554    1.2800   13.3810 H       1  UNL1        0.0000
     28 H          -4.8335    1.9407   15.0644 H       1  UNL1        0.0000
     29 H          -5.6196    4.2788   15.1625 H       1  UNL1        0.0000
     30 H          -4.7172    5.9513   13.5861 H       1  UNL1        0.0000
     31 H          -4.0739    4.6720    8.7453 H       1  UNL1        0.0000
     32 H          -5.7233    4.1090    8.9273 H       1  UNL1        0.0000
     33 H          -4.5559    3.8152   10.1997 H       1  UNL1        0.0000
     34 H          -7.2381    6.6194   11.9523 H       1  UNL1        0.0000
     35 H          -6.6694    4.9660   12.0708 H       1  UNL1        0.0000
     36 H          -7.7209    5.4416   10.7537 H       1  UNL1        0.0000
     37 H          -6.6069    6.9822    8.2536 H       1  UNL1        0.0000
     38 H          -5.0204    7.7231    8.3183 H       1  UNL1        0.0000
     39 H          -6.3138    8.3226    9.3378 H       1  UNL1        0.0000
     40 H          -1.8355    8.6348   13.0312 H       1  UNL1        0.0000
     41 H          -2.9575    7.6607   13.9671 H       1  UNL1        0.0000
     42 H          -3.0794    9.4118   13.9946 H       1  UNL1        0.0000
     43 H          -6.5320    8.9013   11.7410 H       1  UNL1        0.0000
     44 H          -5.7780    9.9468   12.9206 H       1  UNL1        0.0000
     45 H          -6.1094    8.2790   13.3259 H       1  UNL1        0.0000
     46 H          -2.7063    9.4943    9.9769 H       1  UNL1        0.0000
     47 H          -3.4324   10.7436   10.9602 H       1  UNL1        0.0000
     48 H          -4.4093    9.8761    9.7948 H       1  UNL1        0.0000
@<TRIPOS>BOND
     1    24     4    1
     2    25     4    1
     3    37    15    1
     4    38    15    1
     5     4    23    1
     6     4     2    1
     7    21     3    1
     8    31    13    1
     9    15    39    1
    10    15    12    1
    11    32    13    1
    12    22     3    1
    13     3     2    1
    14     3    20    1
    15    13    33    1
    16    13    12    1
    17    48    19    1
    18     2     1    1
    19    46    19    1
    20    12    11    1
    21    12    14    1
    22    19    47    1
    23    19    16    1
    24    36    14    1
    25    11     1    1
    26    11    16    1
    27    14    34    1
    28    14    35    1
    29     1     5    1
    30    43    18    1
    31    26     6    1
    32    16    18    1
    33    16    17    1
    34    18    44    1
    35    18    45    1
    36     6     5   ar
    37     6     7   ar
    38     5    10   ar
    39    40    17    1
    40    17    41    1
    41    17    42    1
    42    27     7    1
    43     7     8   ar
    44    10    30    1
    45    10     9   ar
    46     8     9   ar
    47     8    28    1
    48     9    29    1
