@<TRIPOS>MOLECULE
1,2
 60 63 0 0 0
SMALL
GASTEIGER

@<TRIPOS>ATOM
      1 P           1.8512    2.2845    7.0671 P.3     1  UNL1        0.0000
      2 SI          4.0145   -0.3439    7.4389 Si      1  UNL1        0.0000
      3 O           4.6015    0.5880    6.1578 O.2     1  UNL1        0.0000
      4 C           5.3165    2.4249    4.7993 C.3     1  UNL1        0.0000
      5 H           6.3159    2.4537    5.2378 H       1  UNL1        0.0000
      6 H           5.3809    1.8355    3.8824 H       1  UNL1        0.0000
      7 C           4.3337    1.8080    5.7645 C.2     1  UNL1        0.0000
      8 C           3.3172    2.6695    6.0632 C.2     1  UNL1        0.0000
      9 C           3.5764    3.9263    5.3430 C.ar    1  UNL1        0.0000
     10 C           2.9241    5.1527    5.3219 C.ar    1  UNL1        0.0000
     11 H           2.0457    5.3419    5.9170 H       1  UNL1        0.0000
     12 C           3.4179    6.1795    4.5325 C.ar    1  UNL1        0.0000
     13 H           2.9018    7.1288    4.5211 H       1  UNL1        0.0000
     14 C           4.5576    6.0130    3.7649 C.ar    1  UNL1        0.0000
     15 H           4.9224    6.8252    3.1543 H       1  UNL1        0.0000
     16 C           5.2374    4.8039    3.7943 C.ar    1  UNL1        0.0000
     17 H           6.1387    4.6651    3.2150 H       1  UNL1        0.0000
     18 C           4.7492    3.7843    4.5804 C.ar    1  UNL1        0.0000
     19 C           1.8307    3.7380    8.2582 C.3     1  UNL1        0.0000
     20 H           1.4534    4.6159    7.7246 H       1  UNL1        0.0000
     21 C           3.2525    3.9985    8.7463 C.3     1  UNL1        0.0000
     22 H           3.8741    4.4034    7.9518 H       1  UNL1        0.0000
     23 H           3.7008    3.0661    9.0920 H       1  UNL1        0.0000
     24 H           3.2440    4.7079    9.5728 H       1  UNL1        0.0000
     25 C           0.9125    3.4588    9.4403 C.3     1  UNL1        0.0000
     26 H          -0.1086    3.2788    9.1148 H       1  UNL1        0.0000
     27 H           0.9115    4.3050   10.1270 H       1  UNL1        0.0000
     28 H           1.2705    2.5808    9.9752 H       1  UNL1        0.0000
     29 C           0.5445    2.7612    5.8061 C.3     1  UNL1        0.0000
     30 H           0.7998    3.7612    5.4456 H       1  UNL1        0.0000
     31 C          -0.8488    2.7799    6.4170 C.3     1  UNL1        0.0000
     32 H          -0.9691    3.6112    7.1085 H       1  UNL1        0.0000
     33 H          -1.0202    1.8479    6.9504 H       1  UNL1        0.0000
     34 H          -1.6041    2.8763    5.6375 H       1  UNL1        0.0000
     35 C           0.6064    1.8036    4.6233 C.3     1  UNL1        0.0000
     36 H           1.6167    1.7645    4.2188 H       1  UNL1        0.0000
     37 H          -0.0720    2.1308    3.8363 H       1  UNL1        0.0000
     38 H           0.3221    0.7997    4.9322 H       1  UNL1        0.0000
     39 C           5.4834   -0.1921    8.6771 C.ar    1  UNL1        0.0000
     40 C           5.3247    0.1203   10.0211 C.ar    1  UNL1        0.0000
     41 H           4.3329    0.3296   10.3984 H       1  UNL1        0.0000
     42 C           6.4068    0.1790   10.8822 C.ar    1  UNL1        0.0000
     43 H           6.2573    0.4228   11.9253 H       1  UNL1        0.0000
     44 C           7.6818   -0.0743   10.4076 C.ar    1  UNL1        0.0000
     45 H           8.5299   -0.0312   11.0764 H       1  UNL1        0.0000
     46 C           7.8630   -0.3817    9.0693 C.ar    1  UNL1        0.0000
     47 H           8.8566   -0.5793    8.6914 H       1  UNL1        0.0000
     48 C           6.7742   -0.4410    8.2188 C.ar    1  UNL1        0.0000
     49 H           6.9179   -0.6881    7.1773 H       1  UNL1        0.0000
     50 C           4.3197   -2.0558    6.6436 C.ar    1  UNL1        0.0000
     51 C           3.9076   -2.3291    5.3439 C.ar    1  UNL1        0.0000
     52 H           3.4379   -1.5424    4.7710 H       1  UNL1        0.0000
     53 C           4.0900   -3.5786    4.7796 C.ar    1  UNL1        0.0000
     54 H           3.7662   -3.7693    3.7655 H       1  UNL1        0.0000
     55 C           4.6856   -4.5898    5.5151 C.ar    1  UNL1        0.0000
     56 H           4.8263   -5.5694    5.0803 H       1  UNL1        0.0000
     57 C           5.1045   -4.3362    6.8104 C.ar    1  UNL1        0.0000
     58 H           5.5759   -5.1190    7.3888 H       1  UNL1        0.0000
     59 C           4.9221   -3.0806    7.3633 C.ar    1  UNL1        0.0000
     60 H           5.2659   -2.8841    8.3689 H       1  UNL1        0.0000
@<TRIPOS>BOND
     1    15    14    1
     2    17    16    1
     3    14    16   ar
     4    14    12   ar
     5    54    53    1
     6    16    18   ar
     7    37    35    1
     8     6     4    1
     9    36    35    1
    10    13    12    1
    11    12    10   ar
    12    18     4    1
    13    18     9   ar
    14    35    38    1
    15    35    29    1
    16    52    51    1
    17    53    51   ar
    18    53    55   ar
    19     4     5    1
    20     4     7    1
    21    56    55    1
    22    10     9   ar
    23    10    11    1
    24     9     8    1
    25    51    50   ar
    26    30    29    1
    27    55    57   ar
    28    34    31    1
    29     7     8    2
    30     7     3    1
    31    29    31    1
    32    29     1    1
    33     8     1    1
    34     3     2    1
    35    31    33    1
    36    31    32    1
    37    50    59   ar
    38    50     2    1
    39    57    59   ar
    40    57    58    1
    41     1    19    1
    42    49    48    1
    43    59    60    1
    44     2    39    1
    45    20    19    1
    46    22    21    1
    47    48    39   ar
    48    48    46   ar
    49    19    21    1
    50    19    25    1
    51    39    40   ar
    52    47    46    1
    53    21    23    1
    54    21    24    1
    55    46    44   ar
    56    26    25    1
    57    25    28    1
    58    25    27    1
    59    40    41    1
    60    40    42   ar
    61    44    42   ar
    62    44    45    1
    63    42    43    1
