@<TRIPOS>MOLECULE
1,2
 38 39 0 0 0
SMALL
GASTEIGER

@<TRIPOS>ATOM
      1 P           3.4902    6.2233    6.0711 P.3     1  UNL1        0.0000
      2 SI          0.9262    8.2800    6.3346 Si      1  UNL1        0.0000
      3 C           1.3041   10.1590    6.1624 C.3     1  UNL1        0.0000
      4 C          -0.8945    8.2016    6.9472 C.3     1  UNL1        0.0000
      5 C           1.9889    7.6976    7.8637 C.3     1  UNL1        0.0000
      6 C           3.4297    7.4391    7.4500 C.3     1  UNL1        0.0000
      7 C           5.2909    6.1601    5.7970 C.ar    1  UNL1        0.0000
      8 C           5.9059    7.2835    5.2499 C.ar    1  UNL1        0.0000
      9 C           7.2744    7.3048    5.0629 C.ar    1  UNL1        0.0000
     10 C           8.0420    6.2083    5.4195 C.ar    1  UNL1        0.0000
     11 C           7.4330    5.0839    5.9501 C.ar    1  UNL1        0.0000
     12 C           6.0628    5.0535    6.1349 C.ar    1  UNL1        0.0000
     13 C           3.1714    4.5972    6.8340 C.ar    1  UNL1        0.0000
     14 C           3.1201    4.3492    8.1997 C.ar    1  UNL1        0.0000
     15 C           2.8270    3.0781    8.6635 C.ar    1  UNL1        0.0000
     16 C           2.5885    2.0441    7.7743 C.ar    1  UNL1        0.0000
     17 C           2.6412    2.2815    6.4098 C.ar    1  UNL1        0.0000
     18 C           2.9242    3.5509    5.9472 C.ar    1  UNL1        0.0000
     19 H           0.6393   10.6172    5.4393 H       1  UNL1        0.0000
     20 H           1.1645   10.6646    7.1138 H       1  UNL1        0.0000
     21 H           2.3192   10.3401    5.8274 H       1  UNL1        0.0000
     22 H          -1.0028    8.7549    7.8732 H       1  UNL1        0.0000
     23 H          -1.5617    8.6426    6.2171 H       1  UNL1        0.0000
     24 H          -1.2233    7.1848    7.1249 H       1  UNL1        0.0000
     25 H           1.9684    8.4457    8.6566 H       1  UNL1        0.0000
     26 H           1.5546    6.7843    8.2739 H       1  UNL1        0.0000
     27 H           3.8742    8.3578    7.0536 H       1  UNL1        0.0000
     28 H           4.0636    7.0951    8.2759 H       1  UNL1        0.0000
     29 H           5.3063    8.1324    4.9546 H       1  UNL1        0.0000
     30 H           7.7434    8.1799    4.6380 H       1  UNL1        0.0000
     31 H           9.1129    6.2278    5.2797 H       1  UNL1        0.0000
     32 H           8.0279    4.2245    6.2248 H       1  UNL1        0.0000
     33 H           5.5956    4.1703    6.5477 H       1  UNL1        0.0000
     34 H           3.3063    5.1415    8.9089 H       1  UNL1        0.0000
     35 H           2.7832    2.8949    9.7274 H       1  UNL1        0.0000
     36 H           2.3574    1.0559    8.1436 H       1  UNL1        0.0000
     37 H           2.4527    1.4809    5.7092 H       1  UNL1        0.0000
     38 H           2.9509    3.7471    4.8815 H       1  UNL1        0.0000
@<TRIPOS>BOND
     1    30     9    1
     2    38    18    1
     3    29     8    1
     4     9     8   ar
     5     9    10   ar
     6     8     7   ar
     7    31    10    1
     8    10    11   ar
     9    19     3    1
    10    37    17    1
    11     7     1    1
    12     7    12   ar
    13    21     3    1
    14    18    17   ar
    15    18    13   ar
    16    11    12   ar
    17    11    32    1
    18     1    13    1
    19     1     6    1
    20    12    33    1
    21     3     2    1
    22     3    20    1
    23    23     4    1
    24     2     4    1
    25     2     5    1
    26    17    16   ar
    27    13    14   ar
    28     4    24    1
    29     4    22    1
    30    27     6    1
    31     6     5    1
    32     6    28    1
    33    16    36    1
    34    16    15   ar
    35     5    26    1
    36     5    25    1
    37    14    15   ar
    38    14    34    1
    39    15    35    1
