@<TRIPOS>MOLECULE
1,2
 38 39 0 0 0
SMALL
GASTEIGER

@<TRIPOS>ATOM
      1 P           2.7219    5.8265    2.5641 P.3     1  UNL1        0.0000
      2 SI         -0.0114    7.5418    2.9160 Si      1  UNL1        0.0000
      3 C          -0.2013    9.4369    2.6326 C.3     1  UNL1        0.0000
      4 C          -1.8065    6.8804    3.1214 C.3     1  UNL1        0.0000
      5 C           0.5675    6.8044    1.2020 C.3     1  UNL1        0.0000
      6 C           2.0867    6.7693    1.1161 C.3     1  UNL1        0.0000
      7 C           4.5277    5.8264    2.3586 C.ar    1  UNL1        0.0000
      8 C           5.2106    6.8927    1.7852 C.ar    1  UNL1        0.0000
      9 C           6.5893    6.8555    1.6781 C.ar    1  UNL1        0.0000
     10 C           7.2980    5.7613    2.1429 C.ar    1  UNL1        0.0000
     11 C           6.6252    4.7041    2.7334 C.ar    1  UNL1        0.0000
     12 C           5.2501    4.7410    2.8509 C.ar    1  UNL1        0.0000
     13 C           2.3255    4.1372    1.9771 C.ar    1  UNL1        0.0000
     14 C           3.0303    3.5508    0.9300 C.ar    1  UNL1        0.0000
     15 C           2.6796    2.2942    0.4739 C.ar    1  UNL1        0.0000
     16 C           1.6209    1.6121    1.0533 C.ar    1  UNL1        0.0000
     17 C           0.9090    2.1938    2.0882 C.ar    1  UNL1        0.0000
     18 C           1.2608    3.4514    2.5464 C.ar    1  UNL1        0.0000
     19 H          -0.7324    9.6361    1.7063 H       1  UNL1        0.0000
     20 H          -0.7664    9.8840    3.4428 H       1  UNL1        0.0000
     21 H           0.7598    9.9364    2.5853 H       1  UNL1        0.0000
     22 H          -2.2580    7.2765    4.0219 H       1  UNL1        0.0000
     23 H          -2.4160    7.1883    2.2796 H       1  UNL1        0.0000
     24 H          -1.8437    5.7989    3.1815 H       1  UNL1        0.0000
     25 H           0.1705    7.3888    0.3716 H       1  UNL1        0.0000
     26 H           0.1774    5.7898    1.0936 H       1  UNL1        0.0000
     27 H           2.4796    7.7861    1.1720 H       1  UNL1        0.0000
     28 H           2.4454    6.2968    0.1938 H       1  UNL1        0.0000
     29 H           4.6700    7.7574    1.4332 H       1  UNL1        0.0000
     30 H           7.1123    7.6864    1.2273 H       1  UNL1        0.0000
     31 H           8.3737    5.7326    2.0505 H       1  UNL1        0.0000
     32 H           7.1741    3.8517    3.1062 H       1  UNL1        0.0000
     33 H           4.7273    3.9137    3.3140 H       1  UNL1        0.0000
     34 H           3.8582    4.0790    0.4758 H       1  UNL1        0.0000
     35 H           3.2326    1.8446   -0.3382 H       1  UNL1        0.0000
     36 H           1.3515    0.6294    0.6952 H       1  UNL1        0.0000
     37 H           0.0797    1.6693    2.5399 H       1  UNL1        0.0000
     38 H           0.7051    3.9129    3.3514 H       1  UNL1        0.0000
@<TRIPOS>BOND
     1    35    15    1
     2    28     6    1
     3    25     5    1
     4    15    14   ar
     5    15    16   ar
     6    34    14    1
     7    36    16    1
     8    14    13   ar
     9    16    17   ar
    10    26     5    1
    11     6    27    1
    12     6     5    1
    13     6     1    1
    14     5     2    1
    15    30     9    1
    16    29     8    1
    17     9     8   ar
    18     9    10   ar
    19    19     3    1
    20     8     7   ar
    21    13    18   ar
    22    13     1    1
    23    31    10    1
    24    17    37    1
    25    17    18   ar
    26    10    11   ar
    27    23     4    1
    28     7     1    1
    29     7    12   ar
    30    18    38    1
    31    21     3    1
    32     3     2    1
    33     3    20    1
    34    11    12   ar
    35    11    32    1
    36    12    33    1
    37     2     4    1
    38     4    24    1
    39     4    22    1
