@<TRIPOS>MOLECULE
2,3
 72 71 0 0 0
SMALL
GASTEIGER

@<TRIPOS>ATOM
      1 P           2.7705    8.3430    6.9558 P.3     1  UNL1        0.0000
      2 P           4.2214    7.7208   12.1222 P.3     1  UNL1        0.0000
      3 SI          2.0312    7.5702    9.0629 Si      1  UNL1        0.0000
      4 H           2.8543    6.3250    8.8939 H       1  UNL1        0.0000
      5 H           0.8083    6.9987    8.4394 H       1  UNL1        0.0000
      6 C           5.4789    7.2817   10.8122 C.3     1  UNL1        0.0000
      7 H           6.3148    6.7553   11.2784 H       1  UNL1        0.0000
      8 H           4.9502    6.5735   10.1712 H       1  UNL1        0.0000
      9 C           5.9928    8.4294    9.9452 C.3     1  UNL1        0.0000
     10 H           5.1872    9.1510    9.7933 H       1  UNL1        0.0000
     11 H           6.8054    8.9493   10.4564 H       1  UNL1        0.0000
     12 C           6.5194    7.9643    8.5826 C.3     1  UNL1        0.0000
     13 H           7.0916    8.7790    8.1308 H       1  UNL1        0.0000
     14 H           7.2061    7.1277    8.7354 H       1  UNL1        0.0000
     15 C           5.4235    7.5270    7.6055 C.3     1  UNL1        0.0000
     16 H           4.7844    6.8002    8.1053 H       1  UNL1        0.0000
     17 H           5.8956    7.0248    6.7580 H       1  UNL1        0.0000
     18 C           4.5743    8.7022    7.1095 C.3     1  UNL1        0.0000
     19 H           4.9652    9.1089    6.1730 H       1  UNL1        0.0000
     20 H           4.6123    9.4976    7.8564 H       1  UNL1        0.0000
     21 C           5.2335    8.8397   13.3102 C.3     1  UNL1        0.0000
     22 C           5.1946   10.2706   12.7623 C.3     1  UNL1        0.0000
     23 H           5.7573   10.9263   13.4268 H       1  UNL1        0.0000
     24 H           4.1732   10.6393   12.7132 H       1  UNL1        0.0000
     25 H           5.6342   10.3414   11.7716 H       1  UNL1        0.0000
     26 C           4.5517    8.8645   14.6793 C.3     1  UNL1        0.0000
     27 H           4.9579    9.6810   15.2765 H       1  UNL1        0.0000
     28 H           4.7104    7.9417   15.2316 H       1  UNL1        0.0000
     29 H           3.4816    9.0344   14.5645 H       1  UNL1        0.0000
     30 C           6.7063    8.4553   13.4691 C.3     1  UNL1        0.0000
     31 H           7.1683    9.1600   14.1611 H       1  UNL1        0.0000
     32 H           7.2438    8.5247   12.5274 H       1  UNL1        0.0000
     33 H           6.8451    7.4616   13.8769 H       1  UNL1        0.0000
     34 C           4.0427    5.9865   12.9386 C.3     1  UNL1        0.0000
     35 C           2.8616    5.9886   13.9135 C.3     1  UNL1        0.0000
     36 H           2.7851    5.0123   14.3925 H       1  UNL1        0.0000
     37 H           1.9248    6.1738   13.3927 H       1  UNL1        0.0000
     38 H           2.9702    6.7373   14.6922 H       1  UNL1        0.0000
     39 C           5.2801    5.4783   13.6813 C.3     1  UNL1        0.0000
     40 H           5.1086    4.4379   13.9592 H       1  UNL1        0.0000
     41 H           5.4592    6.0314   14.5988 H       1  UNL1        0.0000
     42 H           6.1725    5.5046   13.0602 H       1  UNL1        0.0000
     43 C           3.7232    4.9724   11.8328 C.3     1  UNL1        0.0000
     44 H           3.3444    4.0573   12.2874 H       1  UNL1        0.0000
     45 H           4.6059    4.7114   11.2523 H       1  UNL1        0.0000
     46 H           2.9514    5.3462   11.1628 H       1  UNL1        0.0000
     47 C           2.6009    7.1265    5.5021 C.3     1  UNL1        0.0000
     48 C           2.9000    5.7276    6.0481 C.3     1  UNL1        0.0000
     49 H           2.7811    4.9981    5.2476 H       1  UNL1        0.0000
     50 H           2.2089    5.4718    6.8466 H       1  UNL1        0.0000
     51 H           3.9168    5.6468    6.4207 H       1  UNL1        0.0000
     52 C           3.5661    7.4188    4.3543 C.3     1  UNL1        0.0000
     53 H           3.3907    6.6980    3.5564 H       1  UNL1        0.0000
     54 H           4.5997    7.3114    4.6748 H       1  UNL1        0.0000
     55 H           3.4289    8.4121    3.9400 H       1  UNL1        0.0000
     56 C           1.1535    7.1201    5.0119 C.3     1  UNL1        0.0000
     57 H           1.0046    6.2793    4.3351 H       1  UNL1        0.0000
     58 H           0.8981    8.0262    4.4699 H       1  UNL1        0.0000
     59 H           0.4709    7.0015    5.8516 H       1  UNL1        0.0000
     60 C           2.0349   10.0359    6.5272 C.3     1  UNL1        0.0000
     61 C           2.2996   10.5078    5.0975 C.3     1  UNL1        0.0000
     62 H           1.9271   11.5264    4.9930 H       1  UNL1        0.0000
     63 H           1.7875    9.8968    4.3601 H       1  UNL1        0.0000
     64 H           3.3653   10.5218    4.8749 H       1  UNL1        0.0000
     65 C           0.5314    9.9564    6.7978 C.3     1  UNL1        0.0000
     66 H           0.0766   10.9308    6.6251 H       1  UNL1        0.0000
     67 H           0.3347    9.6768    7.8310 H       1  UNL1        0.0000
     68 H           0.0325    9.2398    6.1536 H       1  UNL1        0.0000
     69 C           2.6332   11.0732    7.4828 C.3     1  UNL1        0.0000
     70 H           2.0350   11.9819    7.4345 H       1  UNL1        0.0000
     71 H           3.6531   11.3376    7.2089 H       1  UNL1        0.0000
     72 H           2.6117   10.7277    8.5147 H       1  UNL1        0.0000
@<TRIPOS>BOND
     1    53    52    1
     2    55    52    1
     3    57    56    1
     4    52    54    1
     5    52    47    1
     6    63    61    1
     7    58    56    1
     8    64    61    1
     9    62    61    1
    10    56    47    1
    11    56    59    1
    12    61    60    1
    13    49    48    1
    14    47    48    1
    15    47     1    1
    16    48    51    1
    17    48    50    1
    18    68    65    1
    19    19    18    1
    20    60    65    1
    21    60     1    1
    22    60    69    1
    23    66    65    1
    24    17    15    1
    25    65    67    1
    26     1    18    1
    27     1     3    1
    28    18    15    1
    29    18    20    1
    30    71    69    1
    31    70    69    1
    32    69    72    1
    33    15    16    1
    34    15    12    1
    35    13    12    1
    36     5     3    1
    37    12    14    1
    38    12     9    1
    39     4     3    1
    40    10     9    1
    41     9    11    1
    42     9     6    1
    43     8     6    1
    44     6     7    1
    45     6     2    1
    46    46    43    1
    47    45    43    1
    48    25    22    1
    49    43    44    1
    50    43    34    1
    51     2    34    1
    52     2    21    1
    53    32    30    1
    54    24    22    1
    55    22    21    1
    56    22    23    1
    57    34    39    1
    58    34    35    1
    59    42    39    1
    60    21    30    1
    61    21    26    1
    62    37    35    1
    63    30    33    1
    64    30    31    1
    65    39    40    1
    66    39    41    1
    67    35    36    1
    68    35    38    1
    69    29    26    1
    70    26    28    1
    71    26    27    1
