@<TRIPOS>MOLECULE
1,2
 60 62 0 0 0
SMALL
GASTEIGER

@<TRIPOS>ATOM
      1 P           3.7180    3.4089    4.4550 P.3     1  UNL1        0.0000
      2 SI          6.0304    1.7677    3.2855 Si      1  UNL1        0.0000
      3 C           3.2112    1.8371    3.6902 C.ar    1  UNL1        0.0000
      4 C           4.2108    1.1592    2.9921 C.ar    1  UNL1        0.0000
      5 C           3.8328    0.0483    2.2488 C.ar    1  UNL1        0.0000
      6 H           4.5753   -0.4821    1.6715 H       1  UNL1        0.0000
      7 C           2.5211   -0.3942    2.2294 C.ar    1  UNL1        0.0000
      8 H           2.2515   -1.2644    1.6469 H       1  UNL1        0.0000
      9 C           1.5518    0.2666    2.9669 C.ar    1  UNL1        0.0000
     10 H           0.5313   -0.0897    2.9695 H       1  UNL1        0.0000
     11 C           1.8938    1.3951    3.6886 C.ar    1  UNL1        0.0000
     12 H           1.1390    1.9195    4.2600 H       1  UNL1        0.0000
     13 C           2.6113    3.5873    5.8890 C.ar    1  UNL1        0.0000
     14 C           2.4564    2.5040    6.7504 C.ar    1  UNL1        0.0000
     15 H           2.9095    1.5564    6.4914 H       1  UNL1        0.0000
     16 C           1.7266    2.6328    7.9158 C.ar    1  UNL1        0.0000
     17 H           1.6051    1.7797    8.5686 H       1  UNL1        0.0000
     18 C           1.1485    3.8488    8.2624 C.ar    1  UNL1        0.0000
     19 C           1.3291    4.9361    7.4142 C.ar    1  UNL1        0.0000
     20 H           0.8934    5.8907    7.6750 H       1  UNL1        0.0000
     21 C           2.0567    4.8133    6.2465 C.ar    1  UNL1        0.0000
     22 H           2.1850    5.6701    5.5986 H       1  UNL1        0.0000
     23 C           0.3695    3.9995    9.5330 C.3     1  UNL1        0.0000
     24 H           0.9891    4.4716   10.2963 H       1  UNL1        0.0000
     25 H           0.0462    3.0320    9.9089 H       1  UNL1        0.0000
     26 H          -0.5045    4.6289    9.3777 H       1  UNL1        0.0000
     27 C           2.9936    4.5481    3.2270 C.ar    1  UNL1        0.0000
     28 C           3.8690    5.1913    2.3600 C.ar    1  UNL1        0.0000
     29 H           4.9327    5.0256    2.4870 H       1  UNL1        0.0000
     30 C           3.3893    6.0166    1.3617 C.ar    1  UNL1        0.0000
     31 H           4.0807    6.5106    0.6936 H       1  UNL1        0.0000
     32 C           2.0233    6.2186    1.2053 C.ar    1  UNL1        0.0000
     33 C           1.1515    5.5705    2.0741 C.ar    1  UNL1        0.0000
     34 H           0.0859    5.7176    1.9634 H       1  UNL1        0.0000
     35 C           1.6250    4.7404    3.0716 C.ar    1  UNL1        0.0000
     36 H           0.9275    4.2476    3.7340 H       1  UNL1        0.0000
     37 C           1.4933    7.0937    0.1111 C.3     1  UNL1        0.0000
     38 H           1.2044    6.4817   -0.7439 H       1  UNL1        0.0000
     39 H           2.2475    7.8030   -0.2207 H       1  UNL1        0.0000
     40 H           0.6131    7.6407    0.4427 H       1  UNL1        0.0000
     41 C           6.8483    1.5192    1.5414 C.3     1  UNL1        0.0000
     42 H           6.5644    0.5388    1.1507 H       1  UNL1        0.0000
     43 C           8.3663    1.5517    1.6240 C.3     1  UNL1        0.0000
     44 H           8.7106    2.5142    1.9926 H       1  UNL1        0.0000
     45 H           8.8160    1.3841    0.6448 H       1  UNL1        0.0000
     46 H           8.7283    0.7832    2.3012 H       1  UNL1        0.0000
     47 C           6.3421    2.5677    0.5592 C.3     1  UNL1        0.0000
     48 H           5.2563    2.5417    0.5011 H       1  UNL1        0.0000
     49 H           6.7459    2.3996   -0.4394 H       1  UNL1        0.0000
     50 H           6.6381    3.5629    0.8821 H       1  UNL1        0.0000
     51 C           6.6941    0.3355    4.4533 C.3     1  UNL1        0.0000
     52 H           7.7466    0.5448    4.6623 H       1  UNL1        0.0000
     53 C           6.6082   -1.0694    3.8714 C.3     1  UNL1        0.0000
     54 H           5.5711   -1.3486    3.7018 H       1  UNL1        0.0000
     55 H           7.0444   -1.7969    4.5575 H       1  UNL1        0.0000
     56 H           7.1438   -1.1327    2.9276 H       1  UNL1        0.0000
     57 C           5.9386    0.3970    5.7763 C.3     1  UNL1        0.0000
     58 H           6.0039    1.3978    6.2049 H       1  UNL1        0.0000
     59 H           6.3368   -0.3173    6.4972 H       1  UNL1        0.0000
     60 H           4.8872    0.1657    5.6136 H       1  UNL1        0.0000
@<TRIPOS>BOND
     1    38    37    1
     2    49    47    1
     3    39    37    1
     4    37    40    1
     5    37    32    1
     6    48    47    1
     7    47    50    1
     8    47    41    1
     9    45    43    1
    10    31    30    1
    11    42    41    1
    12    32    30   ar
    13    32    33   ar
    14    30    28   ar
    15    41    43    1
    16    41     2    1
    17    43    44    1
    18    43    46    1
    19     8     7    1
    20     6     5    1
    21    34    33    1
    22    33    35   ar
    23     7     5   ar
    24     7     9   ar
    25     5     4   ar
    26    28    29    1
    27    28    27   ar
    28    56    53    1
    29     9    10    1
    30     9    11   ar
    31     4     2    1
    32     4     3   ar
    33    35    27   ar
    34    35    36    1
    35    27     1    1
    36     2    51    1
    37    11     3   ar
    38    11    12    1
    39     3     1    1
    40    54    53    1
    41    53    51    1
    42    53    55    1
    43    51    52    1
    44    51    57    1
    45     1    13    1
    46    22    21    1
    47    60    57    1
    48    57    58    1
    49    57    59    1
    50    13    21   ar
    51    13    14   ar
    52    21    19   ar
    53    15    14    1
    54    14    16   ar
    55    19    20    1
    56    19    18   ar
    57    16    18   ar
    58    16    17    1
    59    18    23    1
    60    26    23    1
    61    23    25    1
    62    23    24    1
