@<TRIPOS>MOLECULE
2,4,6,8,10,12
 37 37 0 0 0
SMALL
GASTEIGER

@<TRIPOS>ATOM
      1 SI          4.7387    2.1359    4.8422 Si      1  UNL1        0.0000
      2 SI          3.2694    3.3323    3.3635 Si      1  UNL1        0.0000
      3 SI          1.2168    2.1527    3.7990 Si      1  UNL1        0.0000
      4 C           5.5045    5.7634    3.5972 C.2     1  UNL1        0.0000
      5 H           5.4242    5.3600    4.5973 H       1  UNL1        0.0000
      6 C           5.0453    7.0283    3.1867 C.2     1  UNL1        0.0000
      7 H           4.5633    7.7558    3.8288 H       1  UNL1        0.0000
      8 C           5.5014    7.2561    1.8729 C.3     1  UNL1        0.0000
      9 H           5.4207    8.1904    1.3293 H       1  UNL1        0.0000
     10 C           6.2415    6.1233    1.4697 C.3     1  UNL1        0.0000
     11 H           6.8560    6.0479    0.5813 H       1  UNL1        0.0000
     12 C           6.2369    5.1981    2.5342 C.3     1  UNL1        0.0000
     13 H           6.8029    4.2810    2.5691 H       1  UNL1        0.0000
     14 C           4.5394    2.8243    6.6276 C.3     1  UNL1        0.0000
     15 H           5.2014    2.3261    7.3311 H       1  UNL1        0.0000
     16 H           3.5248    2.7004    6.9907 H       1  UNL1        0.0000
     17 H           4.7683    3.8856    6.6666 H       1  UNL1        0.0000
     18 C           4.4632    0.2387    4.9730 C.3     1  UNL1        0.0000
     19 H           4.5964   -0.2420    4.0084 H       1  UNL1        0.0000
     20 H           3.4609    0.0051    5.3152 H       1  UNL1        0.0000
     21 H           5.1602   -0.2255    5.6659 H       1  UNL1        0.0000
     22 C           6.6218    2.2880    4.5061 C.3     1  UNL1        0.0000
     23 H           6.9854    3.2904    4.7050 H       1  UNL1        0.0000
     24 H           6.8651    2.0436    3.4770 H       1  UNL1        0.0000
     25 H           7.1878    1.6100    5.1398 H       1  UNL1        0.0000
     26 C          -0.4253    2.9908    3.2548 C.3     1  UNL1        0.0000
     27 H          -0.5906    2.9070    2.1853 H       1  UNL1        0.0000
     28 H          -0.4484    4.0457    3.5085 H       1  UNL1        0.0000
     29 H          -1.2783    2.5256    3.7424 H       1  UNL1        0.0000
     30 C           1.1584    0.4143    2.9855 C.3     1  UNL1        0.0000
     31 H           2.0231   -0.1787    3.2628 H       1  UNL1        0.0000
     32 H           1.1516    0.4901    1.9026 H       1  UNL1        0.0000
     33 H           0.2720   -0.1414    3.2794 H       1  UNL1        0.0000
     34 C           0.9360    1.8870    5.6830 C.3     1  UNL1        0.0000
     35 H          -0.0155    1.4023    5.8860 H       1  UNL1        0.0000
     36 H           0.9357    2.8350    6.2133 H       1  UNL1        0.0000
     37 H           1.7140    1.2705    6.1196 H       1  UNL1        0.0000
@<TRIPOS>BOND
     1    11    10    1
     2     9     8    1
     3    10     8    1
     4    10    12    1
     5     8     6    1
     6    32    30    1
     7    27    26    1
     8    12    13    1
     9    12     4    1
    10    30    31    1
    11    30    33    1
    12    30     3    1
    13     6     4    2
    14     6     7    1
    15    26    28    1
    16    26    29    1
    17    26     3    1
    18     2     3    1
    19     2     1    1
    20    24    22    1
    21     4     5    1
    22     3    34    1
    23    19    18    1
    24    22    23    1
    25    22     1    1
    26    22    25    1
    27     1    18    1
    28     1    14    1
    29    18    20    1
    30    18    21    1
    31    34    35    1
    32    34    37    1
    33    34    36    1
    34    14    17    1
    35    14    16    1
    36    14    15    1
    37     2     4    0
