@<TRIPOS>MOLECULE
1,10,11,13,14,16
 101 104 0 0 0
SMALL
GASTEIGER

@<TRIPOS>ATOM
      1 SI          9.2370   -1.5215    4.5897 Si      1  UNL1        0.0000
      2 SI          9.3605    3.2372    4.2256 Si      1  UNL1        0.0000
      3 SI         11.0660   -0.2054    5.5310 Si      1  UNL1        0.0000
      4 SI         11.3339    1.9239    4.5084 Si      1  UNL1        0.0000
      5 SI          9.6235    4.9939    2.5812 Si      1  UNL1        0.0000
      6 SI          8.7910    4.4327    6.2538 Si      1  UNL1        0.0000
      7 SI         10.2459   -2.5611    2.6093 Si      1  UNL1        0.0000
      8 SI          9.0925   -3.5242    6.0269 Si      1  UNL1        0.0000
      9 N           7.0251    1.7746    3.5456 N.pl3   1  UNL1        0.0000
     10 C           5.5471   -0.3103    2.2668 C.2     1  UNL1        0.0000
     11 C           5.1174   -1.8958    3.8471 C.2     1  UNL1        0.0000
     12 C           6.6828    2.5264    2.4136 C.ar    1  UNL1        0.0000
     13 C           6.3224   -2.2374    3.2112 C.2     1  UNL1        0.0000
     14 C           4.6541   -0.6864    3.2903 C.3     1  UNL1        0.0000
     15 C           8.1000    1.8072    4.2647 C.3     1  UNL1        0.0000
     16 C           6.5902   -1.2510    2.2304 C.2     1  UNL1        0.0000
     17 C           7.4299    2.3761    1.2352 C.ar    1  UNL1        0.0000
     18 C           5.4938    3.2719    2.4027 C.ar    1  UNL1        0.0000
     19 C           6.9871    3.0053    0.0798 C.ar    1  UNL1        0.0000
     20 H           7.5376    2.8610   -0.8389 H       1  UNL1        0.0000
     21 C           5.8511    3.7929    0.0810 C.ar    1  UNL1        0.0000
     22 H           5.5319    4.2871   -0.8236 H       1  UNL1        0.0000
     23 C           5.1068    3.9183    1.2418 C.ar    1  UNL1        0.0000
     24 H           4.2018    4.5082    1.2402 H       1  UNL1        0.0000
     25 C           4.6475    3.3115    3.6367 C.3     1  UNL1        0.0000
     26 H           4.3952    2.2883    3.9339 H       1  UNL1        0.0000
     27 H           3.7295    3.8661    3.4584 H       1  UNL1        0.0000
     28 H           5.1885    3.7815    4.4565 H       1  UNL1        0.0000
     29 C          12.5425    3.0742    5.4634 C.3     1  UNL1        0.0000
     30 H          13.5212    2.6141    5.5625 H       1  UNL1        0.0000
     31 H          12.1820    3.2839    6.4648 H       1  UNL1        0.0000
     32 H          12.6842    4.0275    4.9629 H       1  UNL1        0.0000
     33 C          10.6711    0.2763    7.3490 C.3     1  UNL1        0.0000
     34 H          10.5497   -0.5939    7.9851 H       1  UNL1        0.0000
     35 H           9.7607    0.8613    7.4025 H       1  UNL1        0.0000
     36 H          11.4678    0.8727    7.7837 H       1  UNL1        0.0000
     37 C           9.9861    4.6648    0.7229 C.3     1  UNL1        0.0000
     38 H           9.1140    4.3061    0.1894 H       1  UNL1        0.0000
     39 H          10.7858    3.9424    0.5873 H       1  UNL1        0.0000
     40 H          10.3062    5.5841    0.2365 H       1  UNL1        0.0000
     41 C          12.2074    1.7307    2.8086 C.3     1  UNL1        0.0000
     42 H          12.3451    2.6890    2.3172 H       1  UNL1        0.0000
     43 H          11.6409    1.0945    2.1377 H       1  UNL1        0.0000
     44 H          13.1902    1.2841    2.9210 H       1  UNL1        0.0000
     45 C          12.8030   -1.0227    5.7153 C.3     1  UNL1        0.0000
     46 H          13.4671   -0.4105    6.3197 H       1  UNL1        0.0000
     47 H          13.2776   -1.1645    4.7513 H       1  UNL1        0.0000
     48 H          12.7380   -1.9963    6.1919 H       1  UNL1        0.0000
     49 C           8.6461    1.5008    1.1897 C.3     1  UNL1        0.0000
     50 H           9.5499    2.1021    1.2549 H       1  UNL1        0.0000
     51 H           8.6722    0.9630    0.2442 H       1  UNL1        0.0000
     52 H           8.6576    0.7798    2.0152 H       1  UNL1        0.0000
     53 C          10.3060   -1.5365    0.9835 C.3     1  UNL1        0.0000
     54 H          10.9229   -2.0357    0.2407 H       1  UNL1        0.0000
     55 H          10.7344   -0.5534    1.1451 H       1  UNL1        0.0000
     56 H           9.3260   -1.4005    0.5391 H       1  UNL1        0.0000
     57 C          11.1992    5.9712    3.0765 C.3     1  UNL1        0.0000
     58 H          12.0903    5.4128    2.8056 H       1  UNL1        0.0000
     59 H          11.2556    6.1757    4.1375 H       1  UNL1        0.0000
     60 H          11.2492    6.9255    2.5590 H       1  UNL1        0.0000
     61 C          12.0869   -3.0586    2.8241 C.3     1  UNL1        0.0000
     62 H          12.2801   -3.4859    3.8001 H       1  UNL1        0.0000
     63 H          12.7311   -2.1924    2.7123 H       1  UNL1        0.0000
     64 H          12.3960   -3.7894    2.0810 H       1  UNL1        0.0000
     65 C           9.3441    3.6996    7.9397 C.3     1  UNL1        0.0000
     66 H          10.3713    3.3546    7.8929 H       1  UNL1        0.0000
     67 H           8.7397    2.8653    8.2780 H       1  UNL1        0.0000
     68 H           9.2967    4.4598    8.7159 H       1  UNL1        0.0000
     69 C           8.1014    6.1613    2.5819 C.3     1  UNL1        0.0000
     70 H           8.2611    7.0379    1.9599 H       1  UNL1        0.0000
     71 H           7.8627    6.5096    3.5816 H       1  UNL1        0.0000
     72 H           7.2264    5.6449    2.1977 H       1  UNL1        0.0000
     73 C           9.3422   -4.1683    2.0644 C.3     1  UNL1        0.0000
     74 H           8.3463   -3.9588    1.6858 H       1  UNL1        0.0000
     75 H           9.2403   -4.8698    2.8860 H       1  UNL1        0.0000
     76 H           9.8827   -4.6794    1.2712 H       1  UNL1        0.0000
     77 C           7.5509   -4.6063    5.6306 C.3     1  UNL1        0.0000
     78 H           7.4372   -5.4134    6.3504 H       1  UNL1        0.0000
     79 H           7.6279   -5.0649    4.6496 H       1  UNL1        0.0000
     80 H           6.6314   -4.0278    5.6477 H       1  UNL1        0.0000
     81 C           9.6321    6.1519    6.2946 C.3     1  UNL1        0.0000
     82 H           9.3922    6.7574    5.4280 H       1  UNL1        0.0000
     83 H          10.7117    6.0529    6.3442 H       1  UNL1        0.0000
     84 H           9.3244    6.7124    7.1736 H       1  UNL1        0.0000
     85 C           8.9797   -3.2680    7.9298 C.3     1  UNL1        0.0000
     86 H           9.0529   -4.2194    8.4517 H       1  UNL1        0.0000
     87 H           8.0462   -2.8077    8.2360 H       1  UNL1        0.0000
     88 H           9.7900   -2.6454    8.2951 H       1  UNL1        0.0000
     89 C           6.9183    4.8258    6.4049 C.3     1  UNL1        0.0000
     90 H           6.7023    5.4250    7.2861 H       1  UNL1        0.0000
     91 H           6.3233    3.9216    6.4770 H       1  UNL1        0.0000
     92 H           6.5717    5.3863    5.5412 H       1  UNL1        0.0000
     93 C          10.5795   -4.7256    5.8510 C.3     1  UNL1        0.0000
     94 H          11.5055   -4.2453    6.1504 H       1  UNL1        0.0000
     95 H          10.7037   -5.0629    4.8280 H       1  UNL1        0.0000
     96 H          10.4588   -5.6093    6.4726 H       1  UNL1        0.0000
     97 H           6.8475   -3.1747    3.3164 H       1  UNL1        0.0000
     98 H           5.3816    0.4819    1.5494 H       1  UNL1        0.0000
     99 H           7.3622   -1.3127    1.4772 H       1  UNL1        0.0000
    100 H           3.6883   -0.2306    3.4773 H       1  UNL1        0.0000
    101 H           4.5714   -2.5229    4.5400 H       1  UNL1        0.0000
@<TRIPOS>BOND
     1    20    19    1
     2    22    21    1
     3    19    21   ar
     4    19    17   ar
     5    21    23   ar
     6    38    37    1
     7    40    37    1
     8    54    53    1
     9    51    49    1
    10    56    53    1
    11    39    37    1
    12    37     5    1
    13    53    55    1
    14    53     7    1
    15    49    17    1
    16    49    50    1
    17    49    52    1
    18    17    12   ar
    19    24    23    1
    20    23    18   ar
    21    76    73    1
    22    99    16    1
    23    98    10    1
    24    74    73    1
    25    70    69    1
    26    73     7    1
    27    73    75    1
    28    64    61    1
    29    43    41    1
    30    72    69    1
    31    16    10    2
    32    16    13    1
    33    10    14    1
    34    42    41    1
    35    18    12   ar
    36    18    25    1
    37    12     9    1
    38    60    57    1
    39     5    69    1
    40     5    57    1
    41     5     2    1
    42    69    71    1
    43     7    61    1
    44     7     1    1
    45    63    61    1
    46    58    57    1
    47    41    44    1
    48    41     4    1
    49    61    62    1
    50    57    59    1
    51    13    97    1
    52    13    11    2
    53    14   100    1
    54    14    11    1
    55    27    25    1
    56     9    15    1
    57    25    26    1
    58    25    28    1
    59    11   101    1
    60     2    15    1
    61     2     4    1
    62     2     6    1
    63     4    29    1
    64     4     3    1
    65     1     3    1
    66     1     8    1
    67    79    77    1
    68    47    45    1
    69    95    93    1
    70    32    29    1
    71    82    81    1
    72    29    30    1
    73    29    31    1
    74     3    45    1
    75     3    33    1
    76    92    89    1
    77    77    80    1
    78    77     8    1
    79    77    78    1
    80    45    48    1
    81    45    46    1
    82    93     8    1
    83    93    94    1
    84    93    96    1
    85     8    85    1
    86     6    81    1
    87     6    89    1
    88     6    65    1
    89    81    83    1
    90    81    84    1
    91    89    91    1
    92    89    90    1
    93    33    35    1
    94    33    36    1
    95    33    34    1
    96    66    65    1
    97    85    87    1
    98    85    88    1
    99    85    86    1
   100    65    67    1
   101    65    68    1
   102     1    13    0
   103     2     9    0
   104     2    12    0
