@<TRIPOS>MOLECULE
1,4,6,8,10,12
 37 37 0 0 0
SMALL
GASTEIGER

@<TRIPOS>ATOM
      1 SI          3.9497   19.7994   20.1949 Si      1  UNL1        0.0000
      2 SI          2.0017   18.5833   20.9533 Si      1  UNL1        0.0000
      3 SI          5.6947   18.3845   21.0645 Si      1  UNL1        0.0000
      4 C           6.8868   22.0035   19.4518 C.2     1  UNL1        0.0000
      5 H           7.4972   21.1919   19.1022 H       1  UNL1        0.0000
      6 C           6.5674   23.1538   18.7187 C.2     1  UNL1        0.0000
      7 H           6.9533   23.3957   17.7393 H       1  UNL1        0.0000
      8 C           5.8510   24.0329   19.5669 C.3     1  UNL1        0.0000
      9 H           5.6295   25.0715   19.3606 H       1  UNL1        0.0000
     10 C           5.7358   23.3997   20.8278 C.2     1  UNL1        0.0000
     11 H           5.3910   23.8660   21.7395 H       1  UNL1        0.0000
     12 C           6.3818   22.1557   20.7483 C.2     1  UNL1        0.0000
     13 H           6.5540   21.4860   21.5739 H       1  UNL1        0.0000
     14 C           0.3053   19.4739   21.0661 C.3     1  UNL1        0.0000
     15 H          -0.1182   19.6600   20.0846 H       1  UNL1        0.0000
     16 H           0.3761   20.4275   21.5782 H       1  UNL1        0.0000
     17 H          -0.4162   18.8701   21.6115 H       1  UNL1        0.0000
     18 C           1.6818   17.0905   19.7947 C.3     1  UNL1        0.0000
     19 H           0.8840   16.4514   20.1638 H       1  UNL1        0.0000
     20 H           2.5693   16.4772   19.6873 H       1  UNL1        0.0000
     21 H           1.3988   17.4259   18.8020 H       1  UNL1        0.0000
     22 C           2.2155   17.8870   22.7317 C.3     1  UNL1        0.0000
     23 H           1.3311   17.3486   23.0638 H       1  UNL1        0.0000
     24 H           2.3925   18.6871   23.4448 H       1  UNL1        0.0000
     25 H           3.0540   17.2023   22.7950 H       1  UNL1        0.0000
     26 C           5.3446   16.5189   20.7839 C.3     1  UNL1        0.0000
     27 H           6.1594   15.8943   21.1412 H       1  UNL1        0.0000
     28 H           5.2140   16.3083   19.7268 H       1  UNL1        0.0000
     29 H           4.4425   16.1972   21.2925 H       1  UNL1        0.0000
     30 C           7.4499   18.6227   20.3386 C.3     1  UNL1        0.0000
     31 H           7.9113   19.5367   20.6943 H       1  UNL1        0.0000
     32 H           7.4248   18.6643   19.2551 H       1  UNL1        0.0000
     33 H           8.1063   17.8015   20.6158 H       1  UNL1        0.0000
     34 C           5.9282   18.6271   22.9562 C.3     1  UNL1        0.0000
     35 H           6.6684   17.9431   23.3642 H       1  UNL1        0.0000
     36 H           5.0026   18.4655   23.4978 H       1  UNL1        0.0000
     37 H           6.2627   19.6350   23.1836 H       1  UNL1        0.0000
@<TRIPOS>BOND
     1     7     6    1
     2     6     4    2
     3     6     8    1
     4    21    18    1
     5     5     4    1
     6    32    30    1
     7     9     8    1
     8     4    12    1
     9     8    10    1
    10    20    18    1
    11    28    26    1
    12    18    19    1
    13    18     2    1
    14    15    14    1
    15     1     2    1
    16     1     3    1
    17    30    33    1
    18    30    31    1
    19    30     3    1
    20    12    10    2
    21    12    13    1
    22    26     3    1
    23    26    27    1
    24    26    29    1
    25    10    11    1
    26     2    14    1
    27     2    22    1
    28     3    34    1
    29    14    16    1
    30    14    17    1
    31    22    25    1
    32    22    23    1
    33    22    24    1
    34    34    37    1
    35    34    35    1
    36    34    36    1
    37     1    12    0
