@<TRIPOS>MOLECULE
1,5,7,45,47,48
 50 50 0 0 0
SMALL
GASTEIGER

@<TRIPOS>ATOM
      1 SI          0.6210    8.1399   23.3318 Si      1  UNL1        0.0000
      2 SI          2.1049    8.1622   21.3637 Si      1  UNL1        0.0000
      3 SI         -0.5257    6.0254   23.0820 Si      1  UNL1        0.0000
      4 SI         -1.0805    9.7119   22.6198 Si      1  UNL1        0.0000
      5 C           4.1128    9.9716   25.8495 C.2     1  UNL1        0.0000
      6 H           5.0548    9.7084   26.3156 H       1  UNL1        0.0000
      7 C           3.0329   10.6174   26.4850 C.3     1  UNL1        0.0000
      8 H           3.0026   10.9370   27.5153 H       1  UNL1        0.0000
      9 C           2.5266    9.9168   20.6977 C.3     1  UNL1        0.0000
     10 H           3.2906   10.4102   21.2906 H       1  UNL1        0.0000
     11 H           1.6511   10.5583   20.6883 H       1  UNL1        0.0000
     12 H           2.8968    9.8676   19.6768 H       1  UNL1        0.0000
     13 C           3.8298    7.3329   21.5745 C.3     1  UNL1        0.0000
     14 H           3.7527    6.2496   21.5790 H       1  UNL1        0.0000
     15 H           4.3247    7.6320   22.4942 H       1  UNL1        0.0000
     16 H           4.4900    7.5990   20.7524 H       1  UNL1        0.0000
     17 C           1.3427    7.2478   19.8584 C.3     1  UNL1        0.0000
     18 H           2.0062    7.2614   18.9974 H       1  UNL1        0.0000
     19 H           0.4077    7.7058   19.5564 H       1  UNL1        0.0000
     20 H           1.1340    6.2089   20.0911 H       1  UNL1        0.0000
     21 C           0.5574    4.4719   22.7518 C.3     1  UNL1        0.0000
     22 H          -0.0593    3.5934   22.5775 H       1  UNL1        0.0000
     23 H           1.2221    4.2384   23.5760 H       1  UNL1        0.0000
     24 H           1.1740    4.6090   21.8688 H       1  UNL1        0.0000
     25 C          -1.8884    5.9008   21.7410 C.3     1  UNL1        0.0000
     26 H          -1.4746    6.0093   20.7437 H       1  UNL1        0.0000
     27 H          -2.6354    6.6763   21.8724 H       1  UNL1        0.0000
     28 H          -2.4042    4.9442   21.7770 H       1  UNL1        0.0000
     29 C          -1.4273    5.7721   24.7572 C.3     1  UNL1        0.0000
     30 H          -1.4467    4.7331   25.0724 H       1  UNL1        0.0000
     31 H          -2.4590    6.1000   24.6886 H       1  UNL1        0.0000
     32 H          -0.9541    6.3560   25.5481 H       1  UNL1        0.0000
     33 C          -1.5762    9.6048   20.7694 C.3     1  UNL1        0.0000
     34 H          -1.8530    8.5935   20.4927 H       1  UNL1        0.0000
     35 H          -0.7594    9.9085   20.1221 H       1  UNL1        0.0000
     36 H          -2.4246   10.2470   20.5446 H       1  UNL1        0.0000
     37 C          -2.6938    9.3750   23.5999 C.3     1  UNL1        0.0000
     38 H          -2.4893    8.9652   24.5841 H       1  UNL1        0.0000
     39 H          -3.3159    8.6561   23.0767 H       1  UNL1        0.0000
     40 H          -3.2853   10.2749   23.7378 H       1  UNL1        0.0000
     41 C          -0.6330   11.5666   22.8316 C.3     1  UNL1        0.0000
     42 H          -1.4913   12.2012   22.6262 H       1  UNL1        0.0000
     43 H           0.1510   11.8596   22.1399 H       1  UNL1        0.0000
     44 H          -0.2886   11.8044   23.8311 H       1  UNL1        0.0000
     45 C           2.0961   10.9735   25.4905 C.2     1  UNL1        0.0000
     46 H           1.2279   11.5967   25.6384 H       1  UNL1        0.0000
     47 C           2.5948   10.5455   24.2472 C.2     1  UNL1        0.0000
     48 C           3.8357    9.9114   24.4702 C.2     1  UNL1        0.0000
     49 H           2.1784   10.7990   23.2857 H       1  UNL1        0.0000
     50 H           4.5274    9.6021   23.6971 H       1  UNL1        0.0000
@<TRIPOS>BOND
     1    18    17    1
     2    19    17    1
     3    12     9    1
     4    17    20    1
     5    17     2    1
     6    35    33    1
     7    34    33    1
     8    36    33    1
     9    11     9    1
    10     9    10    1
    11     9     2    1
    12    26    25    1
    13    16    13    1
    14    33     4    1
    15     2    13    1
    16     2     1    1
    17    13    14    1
    18    13    15    1
    19    25    28    1
    20    25    27    1
    21    25     3    1
    22    24    21    1
    23    43    41    1
    24    22    21    1
    25     4    41    1
    26     4     1    1
    27     4    37    1
    28    42    41    1
    29    21     3    1
    30    21    23    1
    31    41    44    1
    32    39    37    1
    33     3     1    1
    34     3    29    1
    35    49    47    1
    36    37    40    1
    37    37    38    1
    38    50    48    1
    39    47    48    1
    40    47    45    2
    41    48     5    2
    42    31    29    1
    43    29    30    1
    44    29    32    1
    45    45    46    1
    46    45     7    1
    47     5     6    1
    48     5     7    1
    49     7     8    1
    50     1    47    0
