@<TRIPOS>MOLECULE
1,6,7,14,16,18
 53 57 0 0 0
SMALL
GASTEIGER

@<TRIPOS>ATOM
      1 SI         10.0025    9.3936   10.5525 Si      1  UNL1        0.0000
      2 CL         10.0431   12.2047    8.1317 Cl      1  UNL1        0.0000
      3 CL          8.1058    9.6131    9.7535 Cl      1  UNL1        0.0000
      4 SI         11.2595   10.8397    9.0805 Si      1  UNL1        0.0000
      5 C          13.7799   10.8680    7.6377 C.ar    1  UNL1        0.0000
      6 C          11.8330   11.7593   10.6449 C.3     1  UNL1        0.0000
      7 C          11.1099   12.8356   11.2247 C.3     1  UNL1        0.0000
      8 H          10.4039   13.4653   10.6965 H       1  UNL1        0.0000
      9 C          12.1053    9.3238    6.8420 C.ar    1  UNL1        0.0000
     10 C          10.7233    8.7436    6.8757 C.3     1  UNL1        0.0000
     11 H          10.5678    8.0898    6.0209 H       1  UNL1        0.0000
     12 H           9.9739    9.5310    6.8427 H       1  UNL1        0.0000
     13 H          10.5528    8.1634    7.7823 H       1  UNL1        0.0000
     14 C          12.7698   11.3145   11.6200 C.3     1  UNL1        0.0000
     15 H          13.5664   10.5983   11.4510 H       1  UNL1        0.0000
     16 C          11.6309   13.0864   12.5138 C.2     1  UNL1        0.0000
     17 H          11.3784   13.9239   13.1508 H       1  UNL1        0.0000
     18 C          12.6613   12.1451   12.7603 C.2     1  UNL1        0.0000
     19 H          13.3344   12.1538   13.6081 H       1  UNL1        0.0000
     20 C          12.5034   10.3116    7.7546 C.ar    1  UNL1        0.0000
     21 C          11.5263    6.9125   10.5135 C.ar    1  UNL1        0.0000
     22 C          14.2398   11.9781    8.5342 C.3     1  UNL1        0.0000
     23 H          15.0892   12.4932    8.0915 H       1  UNL1        0.0000
     24 H          14.5526   11.5888    9.5018 H       1  UNL1        0.0000
     25 H          13.4455   12.7024    8.6992 H       1  UNL1        0.0000
     26 C          10.3150    7.5298   10.8531 C.ar    1  UNL1        0.0000
     27 C           9.3222    6.7503   11.4669 C.ar    1  UNL1        0.0000
     28 C           8.0611    7.3455   12.0127 C.3     1  UNL1        0.0000
     29 H           7.5778    6.6417   12.6860 H       1  UNL1        0.0000
     30 H           7.3636    7.5799   11.2120 H       1  UNL1        0.0000
     31 H           8.2683    8.2643   12.5633 H       1  UNL1        0.0000
     32 C          15.2181    8.9176    4.7175 C.3     1  UNL1        0.0000
     33 H          16.2504    9.1265    4.9875 H       1  UNL1        0.0000
     34 H          15.0051    9.4216    3.7743 H       1  UNL1        0.0000
     35 H          15.1021    7.8478    4.5579 H       1  UNL1        0.0000
     36 C          14.6475   10.4035    6.6596 C.ar    1  UNL1        0.0000
     37 H          15.6338   10.8394    6.5808 H       1  UNL1        0.0000
     38 C          10.6728    4.7553   11.2034 C.ar    1  UNL1        0.0000
     39 C          12.9937    8.8840    5.8743 C.ar    1  UNL1        0.0000
     40 H          12.6799    8.1213    5.1754 H       1  UNL1        0.0000
     41 C          11.6829    5.5453   10.6777 C.ar    1  UNL1        0.0000
     42 H          12.6210    5.0858   10.3990 H       1  UNL1        0.0000
     43 C          14.2776    9.4018    5.7770 C.ar    1  UNL1        0.0000
     44 C           9.5102    5.3845   11.6173 C.ar    1  UNL1        0.0000
     45 H           8.7315    4.7969   12.0827 H       1  UNL1        0.0000
     46 C          12.7018    7.6971   10.0124 C.3     1  UNL1        0.0000
     47 H          13.6076    7.1000   10.0881 H       1  UNL1        0.0000
     48 H          12.8369    8.5983   10.6054 H       1  UNL1        0.0000
     49 H          12.5808    7.9849    8.9711 H       1  UNL1        0.0000
     50 C          10.8400    3.2735   11.3353 C.3     1  UNL1        0.0000
     51 H          11.8857    3.0112   11.4778 H       1  UNL1        0.0000
     52 H          10.4891    2.7804   10.4280 H       1  UNL1        0.0000
     53 H          10.2606    2.8905   12.1717 H       1  UNL1        0.0000
@<TRIPOS>BOND
     1    34    32    1
     2    35    32    1
     3    32    33    1
     4    32    43    1
     5    40    39    1
     6    43    39   ar
     7    43    36   ar
     8    39     9   ar
     9    11    10    1
    10    37    36    1
    11    36     5   ar
    12     9    10    1
    13     9    20   ar
    14    12    10    1
    15    10    13    1
    16     5    20   ar
    17     5    22    1
    18    20     4    1
    19    23    22    1
    20     2     4    1
    21    22    25    1
    22    22    24    1
    23    49    46    1
    24     4     1    1
    25     4     6    1
    26     3     1    1
    27    46    47    1
    28    46    21    1
    29    46    48    1
    30    42    41    1
    31    52    50    1
    32    21    41   ar
    33    21    26   ar
    34     1    26    1
    35     6     7    1
    36     6    14    1
    37    41    38   ar
    38     8     7    1
    39    26    27   ar
    40    38    50    1
    41    38    44   ar
    42    30    28    1
    43     7    16    1
    44    50    51    1
    45    50    53    1
    46    15    14    1
    47    27    44   ar
    48    27    28    1
    49    44    45    1
    50    14    18    1
    51    28    31    1
    52    28    29    1
    53    16    18    2
    54    16    17    1
    55    18    19    1
    56     1    27    0
    57     4     9    0
