@<TRIPOS>MOLECULE
1,2,4,6,8,10
 36 36 0 0 0
SMALL
GASTEIGER

@<TRIPOS>ATOM
      1 C           1.0011   10.8676    3.9511 C.2     1  UNL1        0.0000
      2 C           1.6419   12.0838    4.2822 C.3     1  UNL1        0.0000
      3 H           2.2525   12.2557    5.1604 H       1  UNL1        0.0000
      4 C           1.1745   13.0956    3.4091 C.2     1  UNL1        0.0000
      5 H           1.3919   14.1537    3.4941 H       1  UNL1        0.0000
      6 C           0.2473   12.5188    2.5198 C.2     1  UNL1        0.0000
      7 H          -0.3913   13.0616    1.8314 H       1  UNL1        0.0000
      8 C           0.1444   11.1477    2.8457 C.2     1  UNL1        0.0000
      9 H          -0.6265   10.4786    2.4792 H       1  UNL1        0.0000
     10 SI          1.9826    9.1199    1.1088 Si      1  UNL1        0.0000
     11 C           3.4564    8.3941    0.1169 C.3     1  UNL1        0.0000
     12 H           3.2148    7.4131   -0.2812 H       1  UNL1        0.0000
     13 H           4.3382    8.2878    0.7403 H       1  UNL1        0.0000
     14 H           3.7249    9.0315   -0.7217 H       1  UNL1        0.0000
     15 C           0.5355    9.0908   -0.1598 C.3     1  UNL1        0.0000
     16 H           0.7789    9.6640   -1.0498 H       1  UNL1        0.0000
     17 H          -0.3861    9.4960    0.2464 H       1  UNL1        0.0000
     18 H           0.3300    8.0724   -0.4758 H       1  UNL1        0.0000
     19 SI          1.5095    7.7159    3.0017 Si      1  UNL1        0.0000
     20 C           2.9932    6.5654    3.3580 C.3     1  UNL1        0.0000
     21 H           2.8176    5.9392    4.2280 H       1  UNL1        0.0000
     22 H           3.8933    7.1426    3.5440 H       1  UNL1        0.0000
     23 H           3.1943    5.9078    2.5177 H       1  UNL1        0.0000
     24 C           0.0008    6.5832    2.6682 C.3     1  UNL1        0.0000
     25 H           0.1887    5.9163    1.8325 H       1  UNL1        0.0000
     26 H          -0.8875    7.1599    2.4308 H       1  UNL1        0.0000
     27 H          -0.2316    5.9662    3.5310 H       1  UNL1        0.0000
     28 SI          1.1064    9.1812    4.8174 Si      1  UNL1        0.0000
     29 C           2.5364    9.2899    6.0787 C.3     1  UNL1        0.0000
     30 H           2.3414   10.0173    6.8622 H       1  UNL1        0.0000
     31 H           3.4633    9.5717    5.5864 H       1  UNL1        0.0000
     32 H           2.7009    8.3312    6.5593 H       1  UNL1        0.0000
     33 C          -0.5381    8.9523    5.7722 C.3     1  UNL1        0.0000
     34 H          -0.5461    8.0024    6.2971 H       1  UNL1        0.0000
     35 H          -1.3886    8.9592    5.0974 H       1  UNL1        0.0000
     36 H          -0.6968    9.7362    6.5084 H       1  UNL1        0.0000
@<TRIPOS>BOND
     1    16    15    1
     2    14    11    1
     3    18    15    1
     4    12    11    1
     5    15    17    1
     6    15    10    1
     7    11    13    1
     8    11    10    1
     9    10    19    1
    10     7     6    1
    11    25    24    1
    12    26    24    1
    13     9     8    1
    14    23    20    1
    15     6     8    1
    16     6     4    2
    17    24    19    1
    18    24    27    1
    19     8     1    2
    20    19    20    1
    21    19    28    1
    22    20    22    1
    23    20    21    1
    24     4     5    1
    25     4     2    1
    26     1     2    1
    27     1    28    1
    28     2     3    1
    29    28    33    1
    30    28    29    1
    31    35    33    1
    32    31    29    1
    33    33    34    1
    34    33    36    1
    35    29    32    1
    36    29    30    1
