@<TRIPOS>MOLECULE
1,2,4,6,8,10
 36 36 0 0 0
SMALL
GASTEIGER

@<TRIPOS>ATOM
      1 C           0.9507   10.8742    3.9741 C.2     1  UNL1        0.0000
      2 C           1.6002   12.0918    4.3006 C.3     1  UNL1        0.0000
      3 H           2.2157   12.2623    5.1749 H       1  UNL1        0.0000
      4 C           1.1478   13.0997    3.4139 C.2     1  UNL1        0.0000
      5 H           1.3862   14.1537    3.4790 H       1  UNL1        0.0000
      6 C           0.2288   12.5189    2.5141 C.2     1  UNL1        0.0000
      7 H          -0.3886   13.0576    1.8043 H       1  UNL1        0.0000
      8 C           0.1073   11.1491    2.8556 C.2     1  UNL1        0.0000
      9 H          -0.6521   10.4763    2.4749 H       1  UNL1        0.0000
     10 SI          1.9956    9.1215    1.0933 Si      1  UNL1        0.0000
     11 C           3.4689    8.3836    0.1010 C.3     1  UNL1        0.0000
     12 H           3.2245    7.3999   -0.2885 H       1  UNL1        0.0000
     13 H           4.3510    8.2821    0.7243 H       1  UNL1        0.0000
     14 H           3.7370    9.0141   -0.7423 H       1  UNL1        0.0000
     15 C           0.5437    9.1036   -0.1783 C.3     1  UNL1        0.0000
     16 H           0.7897    9.6758   -1.0684 H       1  UNL1        0.0000
     17 H          -0.3740    9.5157    0.2297 H       1  UNL1        0.0000
     18 H           0.3298    8.0868   -0.4937 H       1  UNL1        0.0000
     19 SI          1.5098    7.7233    2.9900 Si      1  UNL1        0.0000
     20 C           2.9898    6.5700    3.3607 C.3     1  UNL1        0.0000
     21 H           2.8082    5.9500    4.2338 H       1  UNL1        0.0000
     22 H           3.8912    7.1451    3.5464 H       1  UNL1        0.0000
     23 H           3.1917    5.9066    2.5254 H       1  UNL1        0.0000
     24 C          -0.0006    6.5882    2.6653 C.3     1  UNL1        0.0000
     25 H           0.1866    5.9176    1.8325 H       1  UNL1        0.0000
     26 H          -0.8898    7.1627    2.4265 H       1  UNL1        0.0000
     27 H          -0.2308    5.9753    3.5314 H       1  UNL1        0.0000
     28 SI          1.1049    9.1847    4.8145 Si      1  UNL1        0.0000
     29 C           2.5610    9.3175    6.0452 C.3     1  UNL1        0.0000
     30 H           2.3650   10.0308    6.8413 H       1  UNL1        0.0000
     31 H           3.4695    9.6281    5.5360 H       1  UNL1        0.0000
     32 H           2.7597    8.3581    6.5112 H       1  UNL1        0.0000
     33 C          -0.5112    8.9035    5.8029 C.3     1  UNL1        0.0000
     34 H          -0.4805    7.9474    6.3151 H       1  UNL1        0.0000
     35 H          -1.3767    8.8947    5.1474 H       1  UNL1        0.0000
     36 H          -0.6746    9.6736    6.5525 H       1  UNL1        0.0000
@<TRIPOS>BOND
     1    16    15    1
     2    14    11    1
     3    18    15    1
     4    12    11    1
     5    15    17    1
     6    15    10    1
     7    11    13    1
     8    11    10    1
     9    10    19    1
    10     7     6    1
    11    25    24    1
    12    26    24    1
    13     9     8    1
    14     6     8    1
    15     6     4    2
    16    23    20    1
    17    24    19    1
    18    24    27    1
    19     8     1    2
    20    19    20    1
    21    19    28    1
    22    20    22    1
    23    20    21    1
    24     4     5    1
    25     4     2    1
    26     1     2    1
    27     1    28    1
    28     2     3    1
    29    28    33    1
    30    28    29    1
    31    35    33    1
    32    31    29    1
    33    33    34    1
    34    33    36    1
    35    29    32    1
    36    29    30    1
