@<TRIPOS>MOLECULE
1,2,4,6,8,10
 27 27 0 0 0
SMALL
GASTEIGER

@<TRIPOS>ATOM
      1 C           1.9433    5.6046    0.0977 C.3     1  UNL1        0.0000
      2 C           2.6549    4.9813    1.1577 C.3     1  UNL1        0.0000
      3 H           2.3891    5.0493    2.2072 H       1  UNL1        0.0000
      4 C           3.5164    3.9826    0.6037 C.2     1  UNL1        0.0000
      5 H           4.0571    3.2310    1.1639 H       1  UNL1        0.0000
      6 C           3.4024    4.0439   -0.7949 C.2     1  UNL1        0.0000
      7 H           3.8405    3.3477   -1.4982 H       1  UNL1        0.0000
      8 C           2.4702    5.0808   -1.1139 C.3     1  UNL1        0.0000
      9 H           2.0383    5.2373   -2.0966 H       1  UNL1        0.0000
     10 SI          3.2175    8.2949    0.0821 Si      1  UNL1        0.0000
     11 C           3.6182    9.3680    1.6307 C.3     1  UNL1        0.0000
     12 H           4.6429    9.7244    1.5995 H       1  UNL1        0.0000
     13 H           3.4929    8.8086    2.5522 H       1  UNL1        0.0000
     14 H           2.9668   10.2346    1.6737 H       1  UNL1        0.0000
     15 C           3.3433    9.4361   -1.4648 C.3     1  UNL1        0.0000
     16 H           2.6916   10.2971   -1.3591 H       1  UNL1        0.0000
     17 H           3.0634    8.9139   -2.3742 H       1  UNL1        0.0000
     18 H           4.3571    9.8015   -1.5950 H       1  UNL1        0.0000
     19 SI          1.0364    7.2852    0.2438 Si      1  UNL1        0.0000
     20 C           0.0730    7.2832    1.8918 C.3     1  UNL1        0.0000
     21 H          -0.6218    6.4498    1.9536 H       1  UNL1        0.0000
     22 H          -0.5011    8.1978    1.9935 H       1  UNL1        0.0000
     23 H           0.7419    7.2229    2.7442 H       1  UNL1        0.0000
     24 C          -0.2159    7.3978   -1.1926 C.3     1  UNL1        0.0000
     25 H          -0.9140    6.5647   -1.1874 H       1  UNL1        0.0000
     26 H           0.2828    7.4080   -2.1564 H       1  UNL1        0.0000
     27 H          -0.7947    8.3119   -1.1166 H       1  UNL1        0.0000
@<TRIPOS>BOND
     1    17    15    1
     2    26    24    1
     3     9     8    1
     4    18    15    1
     5     7     6    1
     6    15    16    1
     7    15    10    1
     8    24    25    1
     9    24    27    1
    10    24    19    1
    11     8     6    1
    12     8     1    1
    13     6     4    2
    14    10    19    1
    15    10    11    1
    16     1    19    1
    17     1     2    1
    18    19    20    1
    19     4     2    1
    20     4     5    1
    21     2     3    1
    22    12    11    1
    23    11    14    1
    24    11    13    1
    25    20    21    1
    26    20    22    1
    27    20    23    1
