@<TRIPOS>MOLECULE
1,4,5,7,9,11
 36 36 0 0 0
SMALL
GASTEIGER

@<TRIPOS>ATOM
      1 SI          9.6196    5.3292   11.2030 Si      1  UNL1        0.0000
      2 SI          7.8244    4.9064    9.6847 Si      1  UNL1        0.0000
      3 SI          8.4434    2.9232    8.5728 Si      1  UNL1        0.0000
      4 C          10.2257    2.7767    9.1634 C.3     1  UNL1        0.0000
      5 C          11.1667    3.8390    9.0763 C.2     1  UNL1        0.0000
      6 H          11.0134    4.7563    8.5348 H       1  UNL1        0.0000
      7 C          12.3381    3.4604    9.7450 C.2     1  UNL1        0.0000
      8 H          13.2653    4.0101    9.7713 H       1  UNL1        0.0000
      9 C          12.1708    2.1182   10.1948 C.2     1  UNL1        0.0000
     10 H          12.9430    1.5081   10.6366 H       1  UNL1        0.0000
     11 C          10.8797    1.7058    9.8372 C.2     1  UNL1        0.0000
     12 H          10.4664    0.7217    9.9802 H       1  UNL1        0.0000
     13 C           8.8507    6.0497   12.8117 C.3     1  UNL1        0.0000
     14 H           9.6009    6.3763   13.5237 H       1  UNL1        0.0000
     15 H           8.2287    5.3134   13.3061 H       1  UNL1        0.0000
     16 H           8.2265    6.9056   12.5764 H       1  UNL1        0.0000
     17 C          10.7502    6.7721   10.5975 C.3     1  UNL1        0.0000
     18 H          10.2461    7.3376    9.8214 H       1  UNL1        0.0000
     19 H          11.6853    6.4125   10.1852 H       1  UNL1        0.0000
     20 H          10.9797    7.4643   11.4006 H       1  UNL1        0.0000
     21 C           6.1548    4.6925   10.5964 C.3     1  UNL1        0.0000
     22 H           5.8693    5.5994   11.1208 H       1  UNL1        0.0000
     23 H           6.2298    3.9000   11.3333 H       1  UNL1        0.0000
     24 H           5.3458    4.4366    9.9180 H       1  UNL1        0.0000
     25 C           7.5421    6.3254    8.4225 C.3     1  UNL1        0.0000
     26 H           6.7334    6.0985    7.7343 H       1  UNL1        0.0000
     27 H           8.4333    6.5029    7.8287 H       1  UNL1        0.0000
     28 H           7.2932    7.2560    8.9236 H       1  UNL1        0.0000
     29 C           7.5410    1.3304    9.1119 C.3     1  UNL1        0.0000
     30 H           7.9714    0.4394    8.6635 H       1  UNL1        0.0000
     31 H           6.4918    1.3611    8.8375 H       1  UNL1        0.0000
     32 H           7.5939    1.2187   10.1895 H       1  UNL1        0.0000
     33 C           8.4729    2.9728    6.6589 C.3     1  UNL1        0.0000
     34 H           9.0505    3.8207    6.3053 H       1  UNL1        0.0000
     35 H           7.4682    3.0736    6.2611 H       1  UNL1        0.0000
     36 H           8.9095    2.0754    6.2294 H       1  UNL1        0.0000
@<TRIPOS>BOND
     1    36    33    1
     2    35    33    1
     3    34    33    1
     4    33     3    1
     5    26    25    1
     6    27    25    1
     7    25    28    1
     8    25     2    1
     9     6     5    1
    10     3    29    1
    11     3     4    1
    12     3     2    1
    13    30    29    1
    14    31    29    1
    15     5     4    1
    16     5     7    2
    17    29    32    1
    18     4    11    1
    19     2    21    1
    20     2     1    1
    21     7     8    1
    22     7     9    1
    23    18    17    1
    24    11    12    1
    25    11     9    2
    26    24    21    1
    27    19    17    1
    28     9    10    1
    29    21    22    1
    30    21    23    1
    31    17     1    1
    32    17    20    1
    33     1    13    1
    34    16    13    1
    35    13    15    1
    36    13    14    1
