@<TRIPOS>MOLECULE
2,4,5,7,9,11
 36 36 0 0 0
SMALL
GASTEIGER

@<TRIPOS>ATOM
      1 SI         -3.7682    3.2385   10.8941 Si      1  UNL1        0.0000
      2 SI         -2.9837    1.2429    9.8325 Si      1  UNL1        0.0000
      3 SI         -3.3518    4.8724    9.2465 Si      1  UNL1        0.0000
      4 C          -1.9375    4.0654    8.2923 C.2     1  UNL1        0.0000
      5 C          -0.5661    4.0979    8.6590 C.2     1  UNL1        0.0000
      6 H          -0.1509    4.7245    9.4325 H       1  UNL1        0.0000
      7 C           0.1940    3.3688    7.7090 C.3     1  UNL1        0.0000
      8 H           1.2693    3.3399    7.6439 H       1  UNL1        0.0000
      9 C          -0.7114    2.8211    6.7770 C.2     1  UNL1        0.0000
     10 H          -0.4487    2.2923    5.8747 H       1  UNL1        0.0000
     11 C          -2.0182    3.2198    7.1541 C.2     1  UNL1        0.0000
     12 H          -2.9066    3.0544    6.5671 H       1  UNL1        0.0000
     13 C          -2.9138   -0.2536   11.0416 C.3     1  UNL1        0.0000
     14 H          -3.8877   -0.4515   11.4791 H       1  UNL1        0.0000
     15 H          -2.2192   -0.0650   11.8531 H       1  UNL1        0.0000
     16 H          -2.5890   -1.1590   10.5383 H       1  UNL1        0.0000
     17 C          -4.2691    0.7152    8.4982 C.3     1  UNL1        0.0000
     18 H          -3.8986   -0.1026    7.8889 H       1  UNL1        0.0000
     19 H          -4.5058    1.5381    7.8333 H       1  UNL1        0.0000
     20 H          -5.1956    0.3891    8.9596 H       1  UNL1        0.0000
     21 C          -5.5738    3.1771   11.5314 C.3     1  UNL1        0.0000
     22 H          -5.7048    2.3862   12.2643 H       1  UNL1        0.0000
     23 H          -6.2674    2.9877   10.7182 H       1  UNL1        0.0000
     24 H          -5.8678    4.1109   12.0029 H       1  UNL1        0.0000
     25 C          -2.6551    3.5911   12.4102 C.3     1  UNL1        0.0000
     26 H          -2.8623    4.5580   12.8591 H       1  UNL1        0.0000
     27 H          -1.6095    3.5792   12.1167 H       1  UNL1        0.0000
     28 H          -2.7830    2.8389   13.1823 H       1  UNL1        0.0000
     29 C          -4.7917    5.1401    8.0192 C.3     1  UNL1        0.0000
     30 H          -4.4892    5.7141    7.1481 H       1  UNL1        0.0000
     31 H          -5.6101    5.6711    8.4942 H       1  UNL1        0.0000
     32 H          -5.1833    4.1905    7.6687 H       1  UNL1        0.0000
     33 C          -2.7399    6.5874    9.8318 C.3     1  UNL1        0.0000
     34 H          -1.9292    6.4845   10.5461 H       1  UNL1        0.0000
     35 H          -3.5381    7.1347   10.3239 H       1  UNL1        0.0000
     36 H          -2.3789    7.1999    9.0097 H       1  UNL1        0.0000
@<TRIPOS>BOND
     1    10     9    1
     2    12    11    1
     3     9    11    2
     4     9     7    1
     5    30    29    1
     6    11     4    1
     7     8     7    1
     8    32    29    1
     9     7     5    1
    10    19    17    1
    11    18    17    1
    12    29    31    1
    13    29     3    1
    14     4     5    2
    15     4     3    1
    16    17    20    1
    17    17     2    1
    18     5     6    1
    19    36    33    1
    20     3    33    1
    21     3     1    1
    22    33    35    1
    23    33    34    1
    24     2     1    1
    25     2    13    1
    26    16    13    1
    27    23    21    1
    28     1    21    1
    29     1    25    1
    30    13    14    1
    31    13    15    1
    32    21    24    1
    33    21    22    1
    34    27    25    1
    35    25    26    1
    36    25    28    1
