@<TRIPOS>MOLECULE
1,2,4,6,8,10
 18 18 0 0 0
SMALL
GASTEIGER

@<TRIPOS>ATOM
      1 C           4.8279    1.8654    4.2702 C.3     1  UNL1        0.0000
      2 C           4.7248    3.2459    3.8914 C.3     1  UNL1        0.0000
      3 H           5.3612    3.7300    3.1595 H       1  UNL1        0.0000
      4 C           3.8309    3.9156    4.7555 C.2     1  UNL1        0.0000
      5 H           3.6758    4.9837    4.8112 H       1  UNL1        0.0000
      6 C           3.3406    2.9599    5.6783 C.2     1  UNL1        0.0000
      7 H           2.7390    3.1835    6.5502 H       1  UNL1        0.0000
      8 C           3.9363    1.7168    5.3773 C.3     1  UNL1        0.0000
      9 H           3.8450    0.8195    5.9773 H       1  UNL1        0.0000
     10 SI          4.3865    0.6973    2.8369 Si      1  UNL1        0.0000
     11 C           4.3027   -1.1401    3.3367 C.3     1  UNL1        0.0000
     12 H           5.2914   -1.5534    3.5088 H       1  UNL1        0.0000
     13 H           3.8432   -1.7137    2.5393 H       1  UNL1        0.0000
     14 H           3.7143   -1.2924    4.2343 H       1  UNL1        0.0000
     15 C           5.5515    0.8399    1.3342 C.3     1  UNL1        0.0000
     16 H           5.6747    1.8672    1.0122 H       1  UNL1        0.0000
     17 H           5.1440    0.2773    0.5020 H       1  UNL1        0.0000
     18 H           6.5330    0.4323    1.5547 H       1  UNL1        0.0000
@<TRIPOS>BOND
     1    17    15    1
     2    16    15    1
     3    15    18    1
     4    15    10    1
     5    13    11    1
     6    10    11    1
     7    10     1    1
     8     3     2    1
     9    11    12    1
    10    11    14    1
    11     2     1    1
    12     2     4    1
    13     1     8    1
    14     4     5    1
    15     4     6    2
    16     8     6    1
    17     8     9    1
    18     6     7    1
