@<TRIPOS>MOLECULE
1,2,4,6,8,10
 18 18 0 0 0
SMALL
GASTEIGER

@<TRIPOS>ATOM
      1 C           0.8458    2.6412    2.1375 C.3     1  UNL1        0.0000
      2 C           0.4930    3.0659    3.4557 C.3     1  UNL1        0.0000
      3 H           0.1481    4.0609    3.7098 H       1  UNL1        0.0000
      4 C           0.4849    1.9560    4.3268 C.2     1  UNL1        0.0000
      5 H           0.1160    1.9477    5.3446 H       1  UNL1        0.0000
      6 C           0.8501    0.8098    3.5796 C.2     1  UNL1        0.0000
      7 H           0.7965   -0.2125    3.9259 H       1  UNL1        0.0000
      8 C           1.0828    1.2301    2.2517 C.3     1  UNL1        0.0000
      9 H           1.2521    0.5672    1.4109 H       1  UNL1        0.0000
     10 SI          2.3667    3.5666    1.4713 Si      1  UNL1        0.0000
     11 C           2.1880    5.4641    1.4914 C.3     1  UNL1        0.0000
     12 H           1.4989    5.8094    0.7273 H       1  UNL1        0.0000
     13 H           3.1508    5.9221    1.2941 H       1  UNL1        0.0000
     14 H           1.8379    5.8309    2.4496 H       1  UNL1        0.0000
     15 C           2.8810    3.0476   -0.2898 C.3     1  UNL1        0.0000
     16 H           2.9686    1.9719   -0.3864 H       1  UNL1        0.0000
     17 H           3.8440    3.4825   -0.5314 H       1  UNL1        0.0000
     18 H           2.1690    3.3991   -1.0298 H       1  UNL1        0.0000
@<TRIPOS>BOND
     1    18    15    1
     2    17    15    1
     3    16    15    1
     4    15    10    1
     5    12    11    1
     6    13    11    1
     7     9     8    1
     8    10    11    1
     9    10     1    1
    10    11    14    1
    11     1     8    1
    12     1     2    1
    13     8     6    1
    14     2     3    1
    15     2     4    1
    16     6     7    1
    17     6     4    2
    18     4     5    1
