@<TRIPOS>MOLECULE
33,34,35
 35 36 0 0 0
SMALL
GASTEIGER

@<TRIPOS>ATOM
      1 C           4.8010    3.9735    9.1548 C.3     1  UNL1        0.0000
      2 H           4.4732    3.0449    8.6972 H       1  UNL1        0.0000
      3 H           4.2269    4.8100    8.7659 H       1  UNL1        0.0000
      4 H           5.8635    4.1260    8.9859 H       1  UNL1        0.0000
      5 C           7.6185   -0.0748    9.9881 C.3     1  UNL1        0.0000
      6 H           6.8294   -0.7767   10.2448 H       1  UNL1        0.0000
      7 H           8.0290   -0.3104    9.0100 H       1  UNL1        0.0000
      8 H           8.3945   -0.0725   10.7471 H       1  UNL1        0.0000
      9 C           8.6370    3.8042   13.7442 C.3     1  UNL1        0.0000
     10 H           8.9811    2.8358   14.0868 H       1  UNL1        0.0000
     11 H           9.5071    4.3764   13.4436 H       1  UNL1        0.0000
     12 H           8.1704    4.3047   14.5829 H       1  UNL1        0.0000
     13 C           8.2536    2.6124    9.7301 C.ar    1  UNL1        0.0000
     14 C           9.0164    2.5098    8.5777 C.ar    1  UNL1        0.0000
     15 H           8.7741    1.7702    7.8285 H       1  UNL1        0.0000
     16 C          10.0871    3.3661    8.3960 C.ar    1  UNL1        0.0000
     17 H          10.6945    3.2880    7.5067 H       1  UNL1        0.0000
     18 C          10.3650    4.3311    9.3513 C.ar    1  UNL1        0.0000
     19 H          11.1926    5.0098    9.2048 H       1  UNL1        0.0000
     20 C           9.5825    4.4279   10.4881 C.ar    1  UNL1        0.0000
     21 H           9.8000    5.1889   11.2224 H       1  UNL1        0.0000
     22 C           8.5158    3.5653   10.7043 C.ar    1  UNL1        0.0000
     23 C           5.2471    5.3381   11.4865 C.ar    1  UNL1        0.0000
     24 C           4.5353    6.5161   11.3355 C.ar    1  UNL1        0.0000
     25 H           3.5496    6.4962   10.8943 H       1  UNL1        0.0000
     26 C           5.0930    7.7062   11.7687 C.ar    1  UNL1        0.0000
     27 H           4.5448    8.6301   11.6582 H       1  UNL1        0.0000
     28 C           6.3488    7.7021   12.3541 C.ar    1  UNL1        0.0000
     29 H           6.7837    8.6289   12.7000 H       1  UNL1        0.0000
     30 C           7.0423    6.5141   12.5030 C.ar    1  UNL1        0.0000
     31 H           8.0141    6.5157   12.9725 H       1  UNL1        0.0000
     32 C           6.5063    5.3077   12.0717 C.ar    1  UNL1        0.0000
     33 SI          7.4035    3.6153   12.2853 Si      1  UNL1        0.0000
     34 S           6.8206    1.5525    9.9124 S.3     1  UNL1        0.0000
     35 S           4.4624    3.8194   10.9360 S.3     1  UNL1        0.0000
@<TRIPOS>BOND
     1    17    16    1
     2    15    14    1
     3    16    14   ar
     4    16    18   ar
     5    14    13   ar
     6     2     1    1
     7     3     1    1
     8     4     1    1
     9     7     5    1
    10     1    35    1
    11    19    18    1
    12    18    20   ar
    13    13    34    1
    14    13    22   ar
    15    34     5    1
    16     5     6    1
    17     5     8    1
    18    20    22   ar
    19    20    21    1
    20    22    33    1
    21    25    24    1
    22    35    23    1
    23    24    23   ar
    24    24    26   ar
    25    23    32   ar
    26    27    26    1
    27    26    28   ar
    28    32    33    1
    29    32    30   ar
    30    33     9    1
    31    28    30   ar
    32    28    29    1
    33    30    31    1
    34    11     9    1
    35     9    10    1
    36     9    12    1
