@<TRIPOS>MOLECULE
1
 23 24 0 0 0
SMALL
GASTEIGER

@<TRIPOS>ATOM
      1 AS          7.3009   10.2737    3.5142 As      1  UNL1        0.0000
      2 C           5.3821   10.6322    3.1595 C.ar    1  UNL1        0.0000
      3 C           4.9215   11.5915    2.2590 C.ar    1  UNL1        0.0000
      4 H           5.6299   12.2181    1.7324 H       1  UNL1        0.0000
      5 C           3.5704   11.7522    2.0075 C.ar    1  UNL1        0.0000
      6 H           3.2404   12.5016    1.3006 H       1  UNL1        0.0000
      7 C           2.6372   10.9632    2.6599 C.ar    1  UNL1        0.0000
      8 H           1.5825   11.0947    2.4669 H       1  UNL1        0.0000
      9 C           3.0711    9.9961    3.5509 C.ar    1  UNL1        0.0000
     10 H           2.3518    9.3634    4.0520 H       1  UNL1        0.0000
     11 C           4.4240    9.8263    3.7822 C.ar    1  UNL1        0.0000
     12 H           4.7684    9.0425    4.4532 H       1  UNL1        0.0000
     13 C           7.8064   10.1588    1.6169 C.ar    1  UNL1        0.0000
     14 C           9.1010   10.4727    1.1942 C.ar    1  UNL1        0.0000
     15 H           9.7932   10.9288    1.8972 H       1  UNL1        0.0000
     16 C           9.5068   10.2457   -0.1085 C.ar    1  UNL1        0.0000
     17 H          10.5175   10.4860   -0.4068 H       1  UNL1        0.0000
     18 C           8.6245    9.7195   -1.0371 C.ar    1  UNL1        0.0000
     19 H           8.9387    9.5551   -2.0575 H       1  UNL1        0.0000
     20 C           7.3353    9.4009   -0.6405 C.ar    1  UNL1        0.0000
     21 H           6.6393    8.9827   -1.3544 H       1  UNL1        0.0000
     22 C           6.9420    9.5965    0.6690 C.ar    1  UNL1        0.0000
     23 H           5.9398    9.3160    0.9770 H       1  UNL1        0.0000
@<TRIPOS>BOND
     1    19    18    1
     2    21    20    1
     3    18    20   ar
     4    18    16   ar
     5    20    22   ar
     6    17    16    1
     7    16    14   ar
     8    22    23    1
     9    22    13   ar
    10    14    13   ar
    11    14    15    1
    12     6     5    1
    13    13     1    1
    14     4     3    1
    15     5     3   ar
    16     5     7   ar
    17     3     2   ar
    18     8     7    1
    19     7     9   ar
    20     2     1    1
    21     2    11   ar
    22     9    11   ar
    23     9    10    1
    24    11    12    1
