@<TRIPOS>MOLECULE
1
 22 22 0 0 0
SMALL
GASTEIGER

@<TRIPOS>ATOM
      1 AS          3.6023   13.5403    0.0417 As      1  UNL1        0.0000
      2 C           3.4301   11.6439   -0.4733 C.ar    1  UNL1        0.0000
      3 C           2.2228   10.9298   -0.5353 C.ar    1  UNL1        0.0000
      4 C           2.2135    9.6114   -0.9682 C.ar    1  UNL1        0.0000
      5 H           1.2715    9.0798   -1.0186 H       1  UNL1        0.0000
      6 C           3.3745    8.9499   -1.3361 C.ar    1  UNL1        0.0000
      7 C           4.5725    9.6461   -1.2531 C.ar    1  UNL1        0.0000
      8 H           5.4938    9.1449   -1.5195 H       1  UNL1        0.0000
      9 C           4.6085   10.9663   -0.8404 C.ar    1  UNL1        0.0000
     10 C           0.9346   11.5509   -0.0838 C.3     1  UNL1        0.0000
     11 H           0.1276   10.8221   -0.1018 H       1  UNL1        0.0000
     12 H           0.6572   12.3819   -0.7342 H       1  UNL1        0.0000
     13 H           1.0524   11.9212    0.9419 H       1  UNL1        0.0000
     14 C           3.3377    7.5313   -1.8214 C.3     1  UNL1        0.0000
     15 H           4.2353    6.9950   -1.5199 H       1  UNL1        0.0000
     16 H           3.2839    7.5102   -2.9106 H       1  UNL1        0.0000
     17 H           2.4670    7.0090   -1.4306 H       1  UNL1        0.0000
     18 C           5.9200   11.6881   -0.7430 C.3     1  UNL1        0.0000
     19 H           5.9158   12.5480   -1.4224 H       1  UNL1        0.0000
     20 H           6.7501   11.0347   -1.0003 H       1  UNL1        0.0000
     21 H           6.0618   12.0674    0.2763 H       1  UNL1        0.0000
     22 H           2.1532   13.8658   -0.2594 H       1  UNL1        0.0000
@<TRIPOS>BOND
     1    16    14    1
     2    14    15    1
     3    14    17    1
     4    14     6    1
     5     8     7    1
     6    19    18    1
     7     6     7   ar
     8     6     4   ar
     9     7     9   ar
    10     5     4    1
    11    20    18    1
    12     4     3   ar
    13     9    18    1
    14     9     2   ar
    15    18    21    1
    16    12    10    1
    17     3     2   ar
    18     3    10    1
    19     2     1    1
    20    22     1    1
    21    11    10    1
    22    10    13    1
