@<TRIPOS>MOLECULE
1
 58 57 0 0 0
SMALL
GASTEIGER

@<TRIPOS>ATOM
      1 AS         -1.1318    1.8848    3.7383 As      1  UNL1        0.0000
      2 C          -1.7182    0.1505    2.9988 C.3     1  UNL1        0.0000
      3 H          -1.4964    0.2488    1.9289 H       1  UNL1        0.0000
      4 SI         -3.6216   -0.0451    3.1143 Si      1  UNL1        0.0000
      5 C          -4.2007   -0.5698    4.8585 C.3     1  UNL1        0.0000
      6 H          -4.0302   -1.6262    5.0307 H       1  UNL1        0.0000
      7 H          -5.2650   -0.3911    4.9712 H       1  UNL1        0.0000
      8 H          -3.6820   -0.0103    5.6376 H       1  UNL1        0.0000
      9 C          -4.4351    1.6372    2.7019 C.3     1  UNL1        0.0000
     10 H          -3.9568    2.4465    3.2571 H       1  UNL1        0.0000
     11 H          -5.4908    1.6455    2.9556 H       1  UNL1        0.0000
     12 H          -4.3574    1.8681    1.6433 H       1  UNL1        0.0000
     13 C          -4.2159   -1.3285    1.8338 C.3     1  UNL1        0.0000
     14 H          -3.8664   -2.3257    2.0750 H       1  UNL1        0.0000
     15 H          -3.8662   -1.0890    0.8350 H       1  UNL1        0.0000
     16 H          -5.2996   -1.3585    1.8030 H       1  UNL1        0.0000
     17 SI         -0.5939   -1.2698    3.6274 Si      1  UNL1        0.0000
     18 C          -0.9581   -1.7728    5.4353 C.3     1  UNL1        0.0000
     19 H          -1.1353   -0.9013    6.0667 H       1  UNL1        0.0000
     20 H          -0.1175   -2.3197    5.8500 H       1  UNL1        0.0000
     21 H          -1.8268   -2.4175    5.5006 H       1  UNL1        0.0000
     22 C           1.2213   -0.6708    3.5396 C.3     1  UNL1        0.0000
     23 H           1.3271    0.3132    4.0005 H       1  UNL1        0.0000
     24 H           1.5675   -0.5965    2.5126 H       1  UNL1        0.0000
     25 H           1.8938   -1.3481    4.0572 H       1  UNL1        0.0000
     26 C          -0.7877   -2.8010    2.5057 C.3     1  UNL1        0.0000
     27 H          -1.7425   -3.2900    2.6627 H       1  UNL1        0.0000
     28 H          -0.0099   -3.5263    2.7189 H       1  UNL1        0.0000
     29 H          -0.7168   -2.5428    1.4545 H       1  UNL1        0.0000
     30 AS         -1.5467    1.9186    5.8992 As      1  UNL1        0.0000
     31 C          -0.8259    3.7865    6.1204 C.3     1  UNL1        0.0000
     32 H          -0.5483    4.1391    5.1150 H       1  UNL1        0.0000
     33 SI          0.8018    3.7341    7.1253 Si      1  UNL1        0.0000
     34 C           1.8601    2.3120    6.4053 C.3     1  UNL1        0.0000
     35 H           1.4486    1.3450    6.6907 H       1  UNL1        0.0000
     36 H           2.8900    2.3521    6.7447 H       1  UNL1        0.0000
     37 H           1.8739    2.3593    5.3170 H       1  UNL1        0.0000
     38 C           1.7638    5.3709    6.9611 C.3     1  UNL1        0.0000
     39 H           1.9937    5.5857    5.9225 H       1  UNL1        0.0000
     40 H           2.7044    5.3199    7.5000 H       1  UNL1        0.0000
     41 H           1.2027    6.2104    7.3550 H       1  UNL1        0.0000
     42 C           0.4282    3.2964    8.9444 C.3     1  UNL1        0.0000
     43 H          -0.3256    2.5136    8.9956 H       1  UNL1        0.0000
     44 H           0.0626    4.1548    9.4959 H       1  UNL1        0.0000
     45 H           1.3191    2.9397    9.4502 H       1  UNL1        0.0000
     46 SI         -2.2577    4.9122    6.7085 Si      1  UNL1        0.0000
     47 C          -2.9239    4.2903    8.3872 C.3     1  UNL1        0.0000
     48 H          -2.2995    4.6054    9.2146 H       1  UNL1        0.0000
     49 H          -2.9650    3.2016    8.3901 H       1  UNL1        0.0000
     50 H          -3.9248    4.6654    8.5732 H       1  UNL1        0.0000
     51 C          -1.7363    6.7426    6.8004 C.3     1  UNL1        0.0000
     52 H          -1.0604    6.9226    7.6291 H       1  UNL1        0.0000
     53 H          -2.6028    7.3805    6.9395 H       1  UNL1        0.0000
     54 H          -1.2396    7.0575    5.8889 H       1  UNL1        0.0000
     55 C          -3.6736    4.6955    5.4395 C.3     1  UNL1        0.0000
     56 H          -3.2927    4.7327    4.4207 H       1  UNL1        0.0000
     57 H          -4.4311    5.4669    5.5305 H       1  UNL1        0.0000
     58 H          -4.1595    3.7310    5.5788 H       1  UNL1        0.0000
@<TRIPOS>BOND
     1    15    13    1
     2    29    26    1
     3    12     9    1
     4    16    13    1
     5    13    14    1
     6    13     4    1
     7     3     2    1
     8    26    27    1
     9    26    28    1
    10    26    17    1
    11    24    22    1
    12     9    11    1
    13     9     4    1
    14     9    10    1
    15     2     4    1
    16     2    17    1
    17     2     1    1
    18     4     5    1
    19    22    17    1
    20    22    23    1
    21    22    25    1
    22    17    18    1
    23     1    30    1
    24    56    55    1
    25     5     7    1
    26     5     6    1
    27     5     8    1
    28    32    31    1
    29    37    34    1
    30    18    21    1
    31    18    20    1
    32    18    19    1
    33    55    57    1
    34    55    58    1
    35    55    46    1
    36    54    51    1
    37    30    31    1
    38    39    38    1
    39    31    46    1
    40    31    33    1
    41    34    35    1
    42    34    36    1
    43    34    33    1
    44    46    51    1
    45    46    47    1
    46    51    53    1
    47    51    52    1
    48    38    33    1
    49    38    41    1
    50    38    40    1
    51    33    42    1
    52    47    49    1
    53    47    50    1
    54    47    48    1
    55    42    43    1
    56    42    45    1
    57    42    44    1
