@<TRIPOS>MOLECULE
1
 27 26 0 0 0
SMALL
GASTEIGER

@<TRIPOS>ATOM
      1 AS          0.5995   13.8433    3.4132 As      1  UNL1        0.0000
      2 SI          0.1285   16.1462    3.6835 Si      1  UNL1        0.0000
      3 SI         -0.6186   13.3135    1.4677 Si      1  UNL1        0.0000
      4 C           0.1147   17.3847    2.1989 C.3     1  UNL1        0.0000
      5 C          -1.6418   16.2452    4.4374 C.3     1  UNL1        0.0000
      6 C           1.2974   16.8426    5.0372 C.3     1  UNL1        0.0000
      7 C           0.2488   13.4487   -0.2521 C.3     1  UNL1        0.0000
      8 C          -2.2733   14.2726    1.2992 C.3     1  UNL1        0.0000
      9 C          -1.1409   11.4662    1.6276 C.3     1  UNL1        0.0000
     10 H          -0.3350   16.9388    1.3162 H       1  UNL1        0.0000
     11 H           1.1053   17.7358    1.9295 H       1  UNL1        0.0000
     12 H          -0.4766   18.2589    2.4522 H       1  UNL1        0.0000
     13 H          -2.4040   16.2127    3.6666 H       1  UNL1        0.0000
     14 H          -1.7997   17.1459    5.0214 H       1  UNL1        0.0000
     15 H          -1.7923   15.3845    5.0871 H       1  UNL1        0.0000
     16 H           1.0345   16.4048    5.9961 H       1  UNL1        0.0000
     17 H           1.2238   17.9214    5.1332 H       1  UNL1        0.0000
     18 H           2.3384   16.5927    4.8495 H       1  UNL1        0.0000
     19 H           1.2739   13.0841   -0.2132 H       1  UNL1        0.0000
     20 H           0.2708   14.4708   -0.6182 H       1  UNL1        0.0000
     21 H          -0.2776   12.8580   -0.9959 H       1  UNL1        0.0000
     22 H          -2.8457   14.1657    2.2150 H       1  UNL1        0.0000
     23 H          -2.8770   13.8988    0.4788 H       1  UNL1        0.0000
     24 H          -2.1104   15.3321    1.1348 H       1  UNL1        0.0000
     25 H          -0.3271   10.7851    1.3985 H       1  UNL1        0.0000
     26 H          -1.9654   11.2192    0.9666 H       1  UNL1        0.0000
     27 H          -1.4632   11.2719    2.6485 H       1  UNL1        0.0000
@<TRIPOS>BOND
     1    21     7    1
     2    20     7    1
     3     7    19    1
     4     7     3    1
     5    23     8    1
     6    26     9    1
     7    24     8    1
     8     8     3    1
     9     8    22    1
    10    10     4    1
    11    25     9    1
    12     3     9    1
    13     3     1    1
    14     9    27    1
    15    11     4    1
    16     4    12    1
    17     4     2    1
    18     1     2    1
    19    13     5    1
    20     2     5    1
    21     2     6    1
    22     5    14    1
    23     5    15    1
    24    18     6    1
    25     6    17    1
    26     6    16    1
