@<TRIPOS>MOLECULE
1
 27 26 0 0 0
SMALL
GASTEIGER

@<TRIPOS>ATOM
      1 AS          2.2368    3.4858    2.6152 As      1  UNL1        0.0000
      2 SI          2.7715    1.1964    2.2090 Si      1  UNL1        0.0000
      3 SI          3.5104    3.9792    4.5617 Si      1  UNL1        0.0000
      4 C           1.6191    0.5691    0.8155 C.3     1  UNL1        0.0000
      5 H           1.6830    1.2382   -0.0385 H       1  UNL1        0.0000
      6 H           0.5775    0.5373    1.1214 H       1  UNL1        0.0000
      7 H           1.8937   -0.4258    0.4796 H       1  UNL1        0.0000
      8 C           4.5453    1.2376    1.4620 C.3     1  UNL1        0.0000
      9 H           5.3057    1.0526    2.2126 H       1  UNL1        0.0000
     10 H           4.7206    2.2289    1.0435 H       1  UNL1        0.0000
     11 H           4.6796    0.5057    0.6726 H       1  UNL1        0.0000
     12 C           2.8041   -0.1417    3.5977 C.3     1  UNL1        0.0000
     13 H           3.2476    0.2386    4.5130 H       1  UNL1        0.0000
     14 H           3.4003   -0.9910    3.2797 H       1  UNL1        0.0000
     15 H           1.8149   -0.5168    3.8371 H       1  UNL1        0.0000
     16 C           4.1534    5.7686    4.2981 C.3     1  UNL1        0.0000
     17 H           3.3544    6.4996    4.3647 H       1  UNL1        0.0000
     18 H           4.5834    5.8413    3.3012 H       1  UNL1        0.0000
     19 H           4.9158    6.0490    5.0175 H       1  UNL1        0.0000
     20 C           2.6261    3.9289    6.2712 C.3     1  UNL1        0.0000
     21 H           2.4104    2.9134    6.5884 H       1  UNL1        0.0000
     22 H           1.6898    4.4803    6.2537 H       1  UNL1        0.0000
     23 H           3.2492    4.3774    7.0385 H       1  UNL1        0.0000
     24 C           5.0863    2.8971    4.7086 C.3     1  UNL1        0.0000
     25 H           4.8522    1.8594    4.9176 H       1  UNL1        0.0000
     26 H           5.7451    3.2515    5.4944 H       1  UNL1        0.0000
     27 H           5.6312    2.9312    3.7705 H       1  UNL1        0.0000
@<TRIPOS>BOND
     1     5     4    1
     2     7     4    1
     3    11     8    1
     4     4     6    1
     5     4     2    1
     6    10     8    1
     7     8     2    1
     8     8     9    1
     9     2     1    1
    10     2    12    1
    11     1     3    1
    12    14    12    1
    13    18    16    1
    14    12    15    1
    15    12    13    1
    16    27    24    1
    17    16    17    1
    18    16     3    1
    19    16    19    1
    20     3    24    1
    21     3    20    1
    22    24    25    1
    23    24    26    1
    24    22    20    1
    25    20    21    1
    26    20    23    1
