@<TRIPOS>MOLECULE
1,2
 56 58 0 0 0
SMALL
GASTEIGER

@<TRIPOS>ATOM
      1 SE          4.8708    6.6326    1.9317 Se      1  UNL1        0.0000
      2 N           4.8814    6.8204    4.6489 N.pl3   1  UNL1        0.0000
      3 N           4.4311    7.2680    5.9085 N.pl3   1  UNL1        0.0000
      4 N           4.6419    8.9511    3.7610 N.2     1  UNL1        0.0000
      5 C           5.3936    7.6577    6.8465 C.ar    1  UNL1        0.0000
      6 C           6.6245    8.1673    6.4351 C.ar    1  UNL1        0.0000
      7 C           7.6001    8.4710    7.3646 C.ar    1  UNL1        0.0000
      8 C           7.3701    8.2727    8.7160 C.ar    1  UNL1        0.0000
      9 C           6.1509    7.7621    9.1328 C.ar    1  UNL1        0.0000
     10 C           5.1710    7.4462    8.2120 C.ar    1  UNL1        0.0000
     11 C           3.0831    7.6185    6.0175 C.ar    1  UNL1        0.0000
     12 C           2.6353    8.5439    6.9627 C.ar    1  UNL1        0.0000
     13 C           1.2884    8.8259    7.0776 C.ar    1  UNL1        0.0000
     14 C           0.3611    8.2018    6.2596 C.ar    1  UNL1        0.0000
     15 C           0.8035    7.3183    5.2896 C.ar    1  UNL1        0.0000
     16 C           2.1493    7.0369    5.1527 C.ar    1  UNL1        0.0000
     17 C           4.7968    7.7180    3.6405 C.2     1  UNL1        0.0000
     18 C           4.5561    9.9444    2.7979 C.ar    1  UNL1        0.0000
     19 C           3.2992   10.5009    2.5145 C.ar    1  UNL1        0.0000
     20 C           3.2125   11.5483    1.6141 C.ar    1  UNL1        0.0000
     21 C           4.3455   12.0638    1.0126 C.ar    1  UNL1        0.0000
     22 C           5.5810   11.5274    1.3137 C.ar    1  UNL1        0.0000
     23 C           5.7111   10.4726    2.2048 C.ar    1  UNL1        0.0000
     24 C           2.0651    9.9024    3.1424 C.3     1  UNL1        0.0000
     25 C           1.4743    8.8744    2.1750 C.3     1  UNL1        0.0000
     26 C           1.0166   10.9417    3.5359 C.3     1  UNL1        0.0000
     27 C           7.0813    9.9204    2.5124 C.3     1  UNL1        0.0000
     28 C           8.0030   10.9999    3.0838 C.3     1  UNL1        0.0000
     29 C           7.6892    9.2768    1.2653 C.3     1  UNL1        0.0000
     30 H           6.7960    8.3468    5.3857 H       1  UNL1        0.0000
     31 H           8.5435    8.8762    7.0301 H       1  UNL1        0.0000
     32 H           8.1322    8.5156    9.4404 H       1  UNL1        0.0000
     33 H           5.9635    7.5998   10.1842 H       1  UNL1        0.0000
     34 H           4.2287    7.0336    8.5448 H       1  UNL1        0.0000
     35 H           3.3449    9.0611    7.5896 H       1  UNL1        0.0000
     36 H           0.9620    9.5492    7.8102 H       1  UNL1        0.0000
     37 H          -0.6912    8.4184    6.3632 H       1  UNL1        0.0000
     38 H           0.0950    6.8451    4.6252 H       1  UNL1        0.0000
     39 H           2.4852    6.3795    4.3544 H       1  UNL1        0.0000
     40 H           2.2479   11.9688    1.3747 H       1  UNL1        0.0000
     41 H           4.2639   12.8812    0.3108 H       1  UNL1        0.0000
     42 H           6.4634   11.9344    0.8424 H       1  UNL1        0.0000
     43 H           2.3777    9.3841    4.0534 H       1  UNL1        0.0000
     44 H           0.6113    8.3830    2.6182 H       1  UNL1        0.0000
     45 H           1.1664    9.3606    1.2516 H       1  UNL1        0.0000
     46 H           2.2253    8.1249    1.9290 H       1  UNL1        0.0000
     47 H           0.2472   10.4698    4.1441 H       1  UNL1        0.0000
     48 H           1.4720   11.7412    4.1160 H       1  UNL1        0.0000
     49 H           0.5375   11.3742    2.6611 H       1  UNL1        0.0000
     50 H           6.9697    9.1451    3.2754 H       1  UNL1        0.0000
     51 H           8.9583   10.5629    3.3693 H       1  UNL1        0.0000
     52 H           8.1907   11.7812    2.3519 H       1  UNL1        0.0000
     53 H           7.5520   11.4544    3.9637 H       1  UNL1        0.0000
     54 H           8.6573    8.8378    1.4976 H       1  UNL1        0.0000
     55 H           7.8231   10.0147    0.4784 H       1  UNL1        0.0000
     56 H           7.0280    8.4937    0.8959 H       1  UNL1        0.0000
@<TRIPOS>BOND
     1    41    21    1
     2    55    29    1
     3    42    22    1
     4    56    29    1
     5    21    22   ar
     6    21    20   ar
     7    45    25    1
     8    29    54    1
     9    29    27    1
    10    22    23   ar
    11    40    20    1
    12    20    19   ar
    13    46    25    1
    14     1    17    1
    15    25    44    1
    16    25    24    1
    17    23    27    1
    18    23    18   ar
    19    52    28    1
    20    27    28    1
    21    27    50    1
    22    19    18   ar
    23    19    24    1
    24    49    26    1
    25    18     4    1
    26    28    51    1
    27    28    53    1
    28    24    26    1
    29    24    43    1
    30    26    48    1
    31    26    47    1
    32    17     4    2
    33    17     2    1
    34    39    16    1
    35    38    15    1
    36     2     3    1
    37    16    15   ar
    38    16    11   ar
    39    15    14   ar
    40    30     6    1
    41     3    11    1
    42     3     5    1
    43    11    12   ar
    44    14    37    1
    45    14    13   ar
    46     6     5   ar
    47     6     7   ar
    48     5    10   ar
    49    12    13   ar
    50    12    35    1
    51    31     7    1
    52    13    36    1
    53     7     8   ar
    54    10    34    1
    55    10     9   ar
    56     8     9   ar
    57     8    32    1
    58     9    33    1
