@<TRIPOS>MOLECULE
1
 52 54 0 0 0
SMALL
GASTEIGER

@<TRIPOS>ATOM
      1 P           1.5410    2.4205   11.8015 P.3     1  UNL1       -0.0964
      2 C           0.5474    3.3879   13.0742 C.3     1  UNL1       -0.0200
      3 H          -0.4034    3.5485   12.5492 H       1  UNL1        0.0349
      4 C           1.1517    4.7694   13.3300 C.3     1  UNL1       -0.0463
      5 H           2.0402    4.6783   13.9581 H       1  UNL1        0.0271
      6 H           1.4488    5.2340   12.3851 H       1  UNL1        0.0271
      7 C           0.1322    5.6594   14.0374 C.3     1  UNL1       -0.0525
      8 H           0.5671    6.6434   14.2233 H       1  UNL1        0.0265
      9 H          -0.7373    5.7964   13.3905 H       1  UNL1        0.0265
     10 C          -0.3058    5.0244   15.3537 C.3     1  UNL1       -0.0530
     11 H          -1.0650    5.6458   15.8321 H       1  UNL1        0.0265
     12 H           0.5504    4.9645   16.0301 H       1  UNL1        0.0265
     13 C          -0.8581    3.6227   15.1132 C.3     1  UNL1       -0.0525
     14 H          -1.7569    3.6882   14.4953 H       1  UNL1        0.0265
     15 H          -1.1405    3.1666   16.0645 H       1  UNL1        0.0265
     16 C           0.1819    2.7437   14.4151 C.3     1  UNL1       -0.0463
     17 H          -0.2335    1.7452   14.2790 H       1  UNL1        0.0271
     18 H           1.0517    2.6626   15.0635 H       1  UNL1        0.0271
     19 C           0.7354    0.7389   11.9349 C.3     1  UNL1       -0.0200
     20 H           0.8396    0.3964   12.9720 H       1  UNL1        0.0349
     21 C          -0.7508    0.8395   11.5820 C.3     1  UNL1       -0.0463
     22 H          -1.2670    1.5135   12.2677 H       1  UNL1        0.0271
     23 H          -0.8523    1.2516   10.5724 H       1  UNL1        0.0271
     24 C          -1.4273   -0.5284   11.6320 C.3     1  UNL1       -0.0525
     25 H          -1.3841   -0.9193   12.6523 H       1  UNL1        0.0265
     26 H          -2.4792   -0.4223   11.3599 H       1  UNL1        0.0265
     27 C          -0.7355   -1.5026   10.6868 C.3     1  UNL1       -0.0530
     28 H          -0.8126   -1.1326    9.6625 H       1  UNL1        0.0265
     29 H          -1.2228   -2.4783   10.7306 H       1  UNL1        0.0265
     30 C           0.7334   -1.6313   11.0703 C.3     1  UNL1       -0.0525
     31 H           0.8103   -2.0405   12.0813 H       1  UNL1        0.0265
     32 H           1.2399   -2.3203   10.3919 H       1  UNL1        0.0265
     33 C           1.4233   -0.2704   11.0167 C.3     1  UNL1       -0.0463
     34 H           1.4007    0.1070    9.9910 H       1  UNL1        0.0271
     35 H           2.4683   -0.3949   11.3041 H       1  UNL1        0.0271
     36 C           3.2340    2.1032   12.5347 C.3     1  UNL1       -0.0200
     37 H           3.5924    1.2477   11.9489 H       1  UNL1        0.0349
     38 C           3.2973    1.7130   14.0107 C.3     1  UNL1       -0.0463
     39 H           3.0513    2.5747   14.6319 H       1  UNL1        0.0271
     40 H           2.5968    0.9069   14.2356 H       1  UNL1        0.0271
     41 C           4.7171    1.2686   14.3614 C.3     1  UNL1       -0.0525
     42 H           4.7583    0.9737   15.4123 H       1  UNL1        0.0265
     43 H           4.9892    0.3983   13.7597 H       1  UNL1        0.0265
     44 C           5.7049    2.4007   14.0977 C.3     1  UNL1       -0.0530
     45 H           6.7192    2.0720   14.3314 H       1  UNL1        0.0265
     46 H           5.4703    3.2455   14.7498 H       1  UNL1        0.0265
     47 C           5.6235    2.8441   12.6405 C.3     1  UNL1       -0.0525
     48 H           5.9344    2.0186   11.9969 H       1  UNL1        0.0265
     49 H           6.3033    3.6784   12.4605 H       1  UNL1        0.0265
     50 C           4.2002    3.2599   12.2748 C.3     1  UNL1       -0.0463
     51 H           3.9188    4.1313   12.8688 H       1  UNL1        0.0271
     52 H           4.1717    3.5450   11.2203 H       1  UNL1        0.0271
@<TRIPOS>BOND
     1    28    27    1
     2    34    33    1
     3    32    30    1
     4    23    21    1
     5    27    29    1
     6    27    30    1
     7    27    24    1
     8    33    30    1
     9    33    35    1
    10    33    19    1
    11    30    31    1
    12    52    50    1
    13    26    24    1
    14    21    24    1
    15    21    19    1
    16    21    22    1
    17    24    25    1
    18     1    19    1
    19     1    36    1
    20     1     2    1
    21    19    20    1
    22    37    36    1
    23    48    47    1
    24    50    36    1
    25    50    47    1
    26    50    51    1
    27     6     4    1
    28    49    47    1
    29    36    38    1
    30     3     2    1
    31    47    44    1
    32     2     4    1
    33     2    16    1
    34     4     5    1
    35     4     7    1
    36     9     7    1
    37    43    41    1
    38    38    40    1
    39    38    41    1
    40    38    39    1
    41     7     8    1
    42     7    10    1
    43    44    45    1
    44    44    41    1
    45    44    46    1
    46    17    16    1
    47    41    42    1
    48    16    18    1
    49    16    13    1
    50    14    13    1
    51    13    10    1
    52    13    15    1
    53    10    11    1
    54    10    12    1
