@<TRIPOS>MOLECULE
1
 13 12 0 0 0
SMALL
GASTEIGER

@<TRIPOS>ATOM
      1 P          -0.4120    4.7731    3.6213 P.3     1  UNL1       -0.1154
      2 C          -2.2435    4.8763    3.8319 C.3     1  UNL1       -0.0447
      3 H          -2.6040    3.9724    4.3191 H       1  UNL1        0.0277
      4 H          -2.7175    4.9534    2.8550 H       1  UNL1        0.0277
      5 H          -2.5120    5.7442    4.4345 H       1  UNL1        0.0277
      6 C           0.0677    4.9460    5.3861 C.3     1  UNL1       -0.0447
      7 H          -0.3933    5.8366    5.8141 H       1  UNL1        0.0277
      8 H           1.1502    5.0236    5.4510 H       1  UNL1        0.0277
      9 H          -0.2498    4.0728    5.9490 H       1  UNL1        0.0277
     10 C          -0.1068    6.5168    3.1296 C.3     1  UNL1       -0.0447
     11 H          -0.5312    7.1935    3.8718 H       1  UNL1        0.0277
     12 H          -0.5591    6.7180    2.1625 H       1  UNL1        0.0277
     13 H           0.9652    6.6803    3.0524 H       1  UNL1        0.0277
@<TRIPOS>BOND
     1    12    10    1
     2     4     2    1
     3    13    10    1
     4    10     1    1
     5    10    11    1
     6     1     2    1
     7     1     6    1
     8     2     3    1
     9     2     5    1
    10     6     8    1
    11     6     7    1
    12     6     9    1
