@<TRIPOS>MOLECULE
1
 13 12 0 0 0
SMALL
GASTEIGER

@<TRIPOS>ATOM
      1 P          -0.9916    1.3391    3.4576 P.3     1  UNL1       -0.1154
      2 C          -0.1838   -0.3087    3.4391 C.3     1  UNL1       -0.0447
      3 H           0.8406   -0.2454    3.7922 H       1  UNL1        0.0277
      4 H          -0.1613   -0.6615    2.4072 H       1  UNL1        0.0277
      5 H          -0.7489   -1.0185    4.0446 H       1  UNL1        0.0277
      6 C          -1.5084    1.4856    5.2256 C.3     1  UNL1       -0.0447
      7 H          -1.6497    0.4903    5.6463 H       1  UNL1        0.0277
      8 H          -2.4552    2.0227    5.2757 H       1  UNL1        0.0277
      9 H          -0.7692    2.0191    5.8096 H       1  UNL1        0.0277
     10 C          -2.6417    0.7270    2.8864 C.3     1  UNL1       -0.0447
     11 H          -2.5570    0.2889    1.8955 H       1  UNL1        0.0277
     12 H          -3.3723    1.5329    2.8673 H       1  UNL1        0.0277
     13 H          -2.9830   -0.0415    3.5812 H       1  UNL1        0.0277
@<TRIPOS>BOND
     1    11    10    1
     2     4     2    1
     3    12    10    1
     4    10     1    1
     5    10    13    1
     6     2     1    1
     7     2     3    1
     8     2     5    1
     9     1     6    1
    10     6     8    1
    11     6     7    1
    12     6     9    1
