@<TRIPOS>MOLECULE
1
 13 12 0 0 0
SMALL
GASTEIGER

@<TRIPOS>ATOM
      1 P          -1.1497    3.4090    0.4894 P.3     1  UNL1       -0.1154
      2 C          -0.4168    2.9042   -1.1158 C.3     1  UNL1       -0.0447
      3 H          -1.0621    3.2064   -1.9416 H       1  UNL1        0.0277
      4 H          -0.3245    1.8174   -1.1167 H       1  UNL1        0.0277
      5 H           0.5763    3.3230   -1.2428 H       1  UNL1        0.0277
      6 C          -1.8267    5.0787    0.0840 C.3     1  UNL1       -0.0447
      7 H          -1.1013    5.8566    0.2867 H       1  UNL1        0.0277
      8 H          -2.7164    5.2574    0.6872 H       1  UNL1        0.0277
      9 H          -2.1060    5.1118   -0.9690 H       1  UNL1        0.0277
     10 C          -2.7583    2.5364    0.2214 C.3     1  UNL1       -0.0447
     11 H          -3.1914    2.8897   -0.7153 H       1  UNL1        0.0277
     12 H          -3.4554    2.7420    1.0306 H       1  UNL1        0.0277
     13 H          -2.5921    1.4646    0.1470 H       1  UNL1        0.0277
@<TRIPOS>BOND
     1     3     2    1
     2     5     2    1
     3     4     2    1
     4     2     1    1
     5     9     6    1
     6    11    10    1
     7     6     7    1
     8     6     1    1
     9     6     8    1
    10    13    10    1
    11    10     1    1
    12    10    12    1
