@<TRIPOS>MOLECULE
2
 49 48 0 0 0
SMALL
GASTEIGER

@<TRIPOS>ATOM
      1 AS          5.3387    8.9299    3.0283 As      1  UNL1        0.0000
      2 P           6.1191   11.1366    5.4245 P.3     1  UNL1        0.0000
      3 SI          4.0172   10.4030    1.7438 Si      1  UNL1        0.0000
      4 SI          7.5626    9.0830    2.2349 Si      1  UNL1        0.0000
      5 N           4.7686    5.9248    3.5678 N.4     1  UNL1        0.0000
      6 C           8.7764    8.4738    3.5940 C.3     1  UNL1        0.0000
      7 H           8.4012    8.7295    4.5831 H       1  UNL1        0.0000
      8 H           9.7534    8.9365    3.4904 H       1  UNL1        0.0000
      9 H           8.9246    7.3974    3.5639 H       1  UNL1        0.0000
     10 C           7.9895   10.8926    1.7852 C.3     1  UNL1        0.0000
     11 H           7.3934   11.2381    0.9443 H       1  UNL1        0.0000
     12 H           9.0353   11.0028    1.5133 H       1  UNL1        0.0000
     13 H           7.7980   11.5551    2.6258 H       1  UNL1        0.0000
     14 C           6.1669    5.8545    3.9931 C.3     1  UNL1        0.0000
     15 H           6.4402    6.7841    4.4933 H       1  UNL1        0.0000
     16 H           6.8050    5.7245    3.1202 H       1  UNL1        0.0000
     17 H           6.3213    5.0188    4.6802 H       1  UNL1        0.0000
     18 C           4.3842   12.2698    1.9498 C.3     1  UNL1        0.0000
     19 H           4.1051   12.6090    2.9438 H       1  UNL1        0.0000
     20 H           3.8134   12.8553    1.2349 H       1  UNL1        0.0000
     21 H           5.4337   12.5040    1.7994 H       1  UNL1        0.0000
     22 C           3.9215    6.1807    4.7356 C.3     1  UNL1        0.0000
     23 H           4.0661    5.4074    5.4935 H       1  UNL1        0.0000
     24 H           2.8769    6.1895    4.4320 H       1  UNL1        0.0000
     25 H           4.1671    7.1530    5.1607 H       1  UNL1        0.0000
     26 B           4.5688    7.0889    2.4507 B       1  UNL1        0.0000
     27 C           4.2350    9.9252   -0.0966 C.3     1  UNL1        0.0000
     28 H           5.2249   10.1907   -0.4576 H       1  UNL1        0.0000
     29 H           3.5094   10.4191   -0.7348 H       1  UNL1        0.0000
     30 H           4.1130    8.8523   -0.2184 H       1  UNL1        0.0000
     31 B           5.2497    9.4596    5.0224 B       1  UNL1        0.0000
     32 C           4.3845    4.6356    2.9849 C.3     1  UNL1        0.0000
     33 H           5.0291    4.4066    2.1393 H       1  UNL1        0.0000
     34 H           3.3591    4.6888    2.6264 H       1  UNL1        0.0000
     35 H           4.4653    3.8363    3.7249 H       1  UNL1        0.0000
     36 C           7.8373    8.0138    0.6700 C.3     1  UNL1        0.0000
     37 H           7.7527    6.9529    0.8863 H       1  UNL1        0.0000
     38 H           8.8193    8.1829    0.2401 H       1  UNL1        0.0000
     39 H           7.0977    8.2512   -0.0887 H       1  UNL1        0.0000
     40 C           2.2052   10.1270    2.2917 C.3     1  UNL1        0.0000
     41 H           1.8671    9.1271    2.0347 H       1  UNL1        0.0000
     42 H           1.5200   10.8359    1.8364 H       1  UNL1        0.0000
     43 H           2.1245   10.2369    3.3711 H       1  UNL1        0.0000
     44 H           5.1325    6.7192    1.4675 H       1  UNL1        0.0000
     45 H           7.4533   10.9334    5.0655 H       1  UNL1        0.0000
     46 H           5.8813   11.9564    4.3232 H       1  UNL1        0.0000
     47 H           3.3953    7.1840    2.2706 H       1  UNL1        0.0000
     48 H           4.0906    9.5577    5.3263 H       1  UNL1        0.0000
     49 H           5.8024    8.6287    5.7012 H       1  UNL1        0.0000
@<TRIPOS>BOND
     1    29    27    1
     2    28    27    1
     3    30    27    1
     4    27     3    1
     5    39    36    1
     6    38    36    1
     7    36    37    1
     8    36     4    1
     9    11    10    1
    10    20    18    1
    11    44    26    1
    12    12    10    1
    13     3    18    1
    14     3    40    1
    15     3     1    1
    16    10     4    1
    17    10    13    1
    18    21    18    1
    19    42    40    1
    20    18    19    1
    21    41    40    1
    22    33    32    1
    23     4     6    1
    24    47    26    1
    25    40    43    1
    26    26     1    1
    27    26     5    1
    28    34    32    1
    29    32     5    1
    30    32    35    1
    31     1    31    1
    32    16    14    1
    33     8     6    1
    34     9     6    1
    35     5    14    1
    36     5    22    1
    37     6     7    1
    38    14    15    1
    39    14    17    1
    40    46     2    1
    41    24    22    1
    42    22    25    1
    43    22    23    1
    44    31    48    1
    45    31     2    1
    46    31    49    1
    47    45     2    1
    48     4     1    0
