@<TRIPOS>MOLECULE
2
 49 48 0 0 0
SMALL
GASTEIGER

@<TRIPOS>ATOM
      1 P           9.6660    5.6965    8.3394 P.3     1  UNL1        0.0000
      2 P           8.6985    3.8178    5.8556 P.3     1  UNL1        0.0000
      3 SI         11.0136    4.0443    9.1626 Si      1  UNL1        0.0000
      4 SI          7.5905    5.5273    9.2813 Si      1  UNL1        0.0000
      5 N          10.3073    8.6533    8.1375 N.4     1  UNL1        0.0000
      6 C           6.2836    6.1259    8.0168 C.3     1  UNL1        0.0000
      7 H           6.1916    7.2078    7.9884 H       1  UNL1        0.0000
      8 H           5.3041    5.7230    8.2566 H       1  UNL1        0.0000
      9 H           6.5378    5.7881    7.0160 H       1  UNL1        0.0000
     10 C           7.1619    3.7394    9.8059 C.3     1  UNL1        0.0000
     11 H           7.0788    3.0757    8.9508 H       1  UNL1        0.0000
     12 H           6.2066    3.7213   10.3231 H       1  UNL1        0.0000
     13 H           7.9057    3.3237   10.4782 H       1  UNL1        0.0000
     14 C           8.8817    8.8350    7.8656 C.3     1  UNL1        0.0000
     15 H           8.7051    9.7767    7.3398 H       1  UNL1        0.0000
     16 H           8.3307    8.8398    8.8033 H       1  UNL1        0.0000
     17 H           8.5229    8.0113    7.2521 H       1  UNL1        0.0000
     18 C          10.9822    4.2049   11.0669 C.3     1  UNL1        0.0000
     19 H          11.2442    5.2151   11.3637 H       1  UNL1        0.0000
     20 H          11.6952    3.5272   11.5250 H       1  UNL1        0.0000
     21 H          10.0042    3.9823   11.4807 H       1  UNL1        0.0000
     22 C          11.0372    8.5931    6.8681 C.3     1  UNL1        0.0000
     23 H          10.7262    7.7153    6.3085 H       1  UNL1        0.0000
     24 H          12.1037    8.5151    7.0650 H       1  UNL1        0.0000
     25 H          10.8483    9.4895    6.2732 H       1  UNL1        0.0000
     26 C          10.7945    9.8083    8.8978 C.3     1  UNL1        0.0000
     27 H          10.6865   10.7261    8.3157 H       1  UNL1        0.0000
     28 H          11.8428    9.6638    9.1480 H       1  UNL1        0.0000
     29 H          10.2334    9.9045    9.8244 H       1  UNL1        0.0000
     30 C          10.4386    2.3131    8.6106 C.3     1  UNL1        0.0000
     31 H           9.4529    2.0552    8.9828 H       1  UNL1        0.0000
     32 H          11.1302    1.5539    8.9637 H       1  UNL1        0.0000
     33 H          10.4130    2.2491    7.5242 H       1  UNL1        0.0000
     34 B           9.5825    5.4732    6.3864 B       1  UNL1        0.0000
     35 C           7.4777    6.5908   10.8680 C.3     1  UNL1        0.0000
     36 H           8.2976    6.3685   11.5427 H       1  UNL1        0.0000
     37 H           6.5517    6.3822   11.3947 H       1  UNL1        0.0000
     38 H           7.5011    7.6560   10.6639 H       1  UNL1        0.0000
     39 C          12.7814    4.3348    8.5049 C.3     1  UNL1        0.0000
     40 H          12.7648    4.5247    7.4360 H       1  UNL1        0.0000
     41 H          13.4110    3.4652    8.6714 H       1  UNL1        0.0000
     42 H          13.2550    5.1845    8.9865 H       1  UNL1        0.0000
     43 B          10.5720    7.3111    9.0199 B       1  UNL1        0.0000
     44 H          10.7136    5.4404    5.9892 H       1  UNL1        0.0000
     45 H           8.1173    3.3022    7.0093 H       1  UNL1        0.0000
     46 H          11.7449    7.1331    9.0061 H       1  UNL1        0.0000
     47 H           7.4662    4.2767    5.3856 H       1  UNL1        0.0000
     48 H          10.1648    7.5360   10.1128 H       1  UNL1        0.0000
     49 H           8.9681    6.3798    5.8966 H       1  UNL1        0.0000
@<TRIPOS>BOND
     1    47     2    1
     2     2    34    1
     3     2    45    1
     4    49    34    1
     5    44    34    1
     6    25    22    1
     7    23    22    1
     8    34     1    1
     9    22    24    1
    10    22     5    1
    11     9     6    1
    12    17    14    1
    13    15    14    1
    14    40    39    1
    15    33    30    1
    16    14     5    1
    17    14    16    1
    18     7     6    1
    19     6     8    1
    20     6     4    1
    21     5    26    1
    22     5    43    1
    23    27    26    1
    24     1    43    1
    25     1     3    1
    26     1     4    1
    27    39    41    1
    28    39    42    1
    29    39     3    1
    30    30    32    1
    31    30    31    1
    32    30     3    1
    33    26    28    1
    34    26    29    1
    35    11    10    1
    36    46    43    1
    37    43    48    1
    38     3    18    1
    39     4    10    1
    40     4    35    1
    41    10    12    1
    42    10    13    1
    43    38    35    1
    44    35    37    1
    45    35    36    1
    46    18    19    1
    47    18    21    1
    48    18    20    1
