@<TRIPOS>MOLECULE
1
 79 83 0 0 0
SMALL
GASTEIGER

@<TRIPOS>ATOM
      1 P           0.5945    4.8809    3.3621 P.3     1  UNL1        0.0000
      2 P           2.5187    0.5500    4.1452 P.3     1  UNL1        0.0000
      3 SI         -1.7031    4.0069    1.4201 Si      1  UNL1        0.0000
      4 SI         -2.2625    6.0568    3.9784 Si      1  UNL1        0.0000
      5 SI          3.0095    1.2167    1.0211 Si      1  UNL1        0.0000
      6 N           1.1892    3.6461    2.4360 N.2     1  UNL1        0.0000
      7 C          -1.0582    5.3131    2.6778 C.3     1  UNL1        0.0000
      8 H          -0.7939    6.1700    2.0444 H       1  UNL1        0.0000
      9 C          -1.3543    6.9292    5.4150 C.3     1  UNL1        0.0000
     10 H          -0.2912    7.0254    5.2054 H       1  UNL1        0.0000
     11 H          -1.4674    6.3949    6.3541 H       1  UNL1        0.0000
     12 H          -1.7442    7.9313    5.5669 H       1  UNL1        0.0000
     13 C          -3.4277    4.7294    4.7168 C.3     1  UNL1        0.0000
     14 H          -4.2682    5.2136    5.2039 H       1  UNL1        0.0000
     15 H          -2.9419    4.1086    5.4641 H       1  UNL1        0.0000
     16 H          -3.8268    4.0716    3.9525 H       1  UNL1        0.0000
     17 C          -3.3139    7.3804    3.0957 C.3     1  UNL1        0.0000
     18 H          -4.0053    7.8439    3.7924 H       1  UNL1        0.0000
     19 H          -3.8981    6.9650    2.2829 H       1  UNL1        0.0000
     20 H          -2.6885    8.1672    2.6850 H       1  UNL1        0.0000
     21 C          -0.6103    4.0756   -0.1408 C.3     1  UNL1        0.0000
     22 H           0.4345    3.9273    0.1115 H       1  UNL1        0.0000
     23 H          -0.6965    5.0422   -0.6300 H       1  UNL1        0.0000
     24 H          -0.8982    3.3186   -0.8650 H       1  UNL1        0.0000
     25 C          -1.8168    2.2342    2.1248 C.3     1  UNL1        0.0000
     26 H          -2.5257    1.6448    1.5510 H       1  UNL1        0.0000
     27 H          -2.1465    2.2263    3.1593 H       1  UNL1        0.0000
     28 H          -0.8558    1.7336    2.0749 H       1  UNL1        0.0000
     29 C          -3.4617    4.4902    0.8495 C.3     1  UNL1        0.0000
     30 H          -3.8071    3.7875    0.0989 H       1  UNL1        0.0000
     31 H          -3.4748    5.4758    0.3978 H       1  UNL1        0.0000
     32 H          -4.1845    4.4863    1.6570 H       1  UNL1        0.0000
     33 C           1.4010    2.5368    3.0770 C.2     1  UNL1        0.0000
     34 C           2.1674    1.4376    2.6815 C.3     1  UNL1        0.0000
     35 C           4.0318    2.7536    0.5630 C.3     1  UNL1        0.0000
     36 H           3.4129    3.6416    0.6405 H       1  UNL1        0.0000
     37 H           4.4130    2.6983   -0.4519 H       1  UNL1        0.0000
     38 H           4.8783    2.8867    1.2306 H       1  UNL1        0.0000
     39 C           4.1238   -0.3280    1.1907 C.3     1  UNL1        0.0000
     40 H           5.0799   -0.0877    1.6450 H       1  UNL1        0.0000
     41 H           4.3251   -0.7750    0.2230 H       1  UNL1        0.0000
     42 H           3.6492   -1.0856    1.8113 H       1  UNL1        0.0000
     43 C           1.6779    0.8582   -0.3010 C.3     1  UNL1        0.0000
     44 H           1.2336   -0.1259   -0.1773 H       1  UNL1        0.0000
     45 H           2.1031    0.8999   -1.2990 H       1  UNL1        0.0000
     46 H           0.8790    1.5899   -0.2513 H       1  UNL1        0.0000
     47 C           1.4997   -0.9312    4.4316 C.ar    1  UNL1        0.0000
     48 C           1.3481   -1.4417    5.7172 C.ar    1  UNL1        0.0000
     49 H           1.8687   -0.9703    6.5409 H       1  UNL1        0.0000
     50 C           0.5366   -2.5418    5.9236 C.ar    1  UNL1        0.0000
     51 H           0.4149   -2.9440    6.9185 H       1  UNL1        0.0000
     52 C          -0.1232   -3.1270    4.8530 C.ar    1  UNL1        0.0000
     53 H          -0.7557   -3.9863    5.0185 H       1  UNL1        0.0000
     54 C           0.0191   -2.6105    3.5747 C.ar    1  UNL1        0.0000
     55 H          -0.5030   -3.0660    2.7464 H       1  UNL1        0.0000
     56 C           0.8267   -1.5074    3.3622 C.ar    1  UNL1        0.0000
     57 H           0.9466   -1.0751    2.3773 H       1  UNL1        0.0000
     58 C           4.2329    0.0819    4.4666 C.ar    1  UNL1        0.0000
     59 C           4.6116   -1.2231    4.7586 C.ar    1  UNL1        0.0000
     60 H           3.8668   -2.0048    4.8158 H       1  UNL1        0.0000
     61 C           5.9481   -1.5138    4.9680 C.ar    1  UNL1        0.0000
     62 H           6.2476   -2.5269    5.1926 H       1  UNL1        0.0000
     63 C           6.9008   -0.5111    4.8860 C.ar    1  UNL1        0.0000
     64 H           7.9422   -0.7450    5.0494 H       1  UNL1        0.0000
     65 C           6.5219    0.7894    4.5884 C.ar    1  UNL1        0.0000
     66 H           7.2666    1.5683    4.5203 H       1  UNL1        0.0000
     67 C           5.1901    1.0881    4.3730 C.ar    1  UNL1        0.0000
     68 H           4.8770    2.0915    4.1259 H       1  UNL1        0.0000
     69 C           1.9620    1.8466    5.2512 C.3     1  UNL1        0.0000
     70 C           2.6099    2.5086    6.2191 C.2     1  UNL1        0.0000
     71 H           3.5137    2.1190    6.6669 H       1  UNL1        0.0000
     72 C           2.0706    3.7572    6.6918 C.2     1  UNL1        0.0000
     73 H           2.5487    4.2229    7.5409 H       1  UNL1        0.0000
     74 C           1.0112    4.3382    6.1079 C.3     1  UNL1        0.0000
     75 H           0.6142    5.2557    6.5158 H       1  UNL1        0.0000
     76 C           0.3107    3.7947    4.9233 C.3     1  UNL1        0.0000
     77 H          -0.7694    3.8032    5.0959 H       1  UNL1        0.0000
     78 C           0.8103    2.4220    4.4954 C.3     1  UNL1        0.0000
     79 H          -0.0051    1.6874    4.4467 H       1  UNL1        0.0000
@<TRIPOS>BOND
     1    45    43    1
     2    24    21    1
     3    23    21    1
     4    37    35    1
     5    43    46    1
     6    43    44    1
     7    43     5    1
     8    21    22    1
     9    21     3    1
    10    30    29    1
    11    41    39    1
    12    31    29    1
    13    35    36    1
    14    35     5    1
    15    35    38    1
    16    29     3    1
    17    29    32    1
    18     5    39    1
    19     5    34    1
    20    39    40    1
    21    39    42    1
    22     3    25    1
    23     3     7    1
    24    26    25    1
    25     8     7    1
    26    28    25    1
    27    25    27    1
    28    19    17    1
    29    57    56    1
    30     6    33    2
    31     6     1    1
    32     7     1    1
    33     7     4    1
    34    34    33    1
    35    34     2    1
    36    20    17    1
    37    55    54    1
    38    33    78    1
    39    17    18    1
    40    17     4    1
    41     1    76    1
    42    56    54   ar
    43    56    47   ar
    44    54    52   ar
    45    16    13    1
    46     4    13    1
    47     4     9    1
    48    68    67    1
    49     2    47    1
    50     2    58    1
    51     2    69    1
    52    67    58   ar
    53    67    65   ar
    54    47    48   ar
    55    79    78    1
    56    58    59   ar
    57    78    76    1
    58    78    69    1
    59    66    65    1
    60    65    63   ar
    61    13    14    1
    62    13    15    1
    63    59    60    1
    64    59    61   ar
    65    52    53    1
    66    52    50   ar
    67    63    61   ar
    68    63    64    1
    69    76    77    1
    70    76    74    1
    71    61    62    1
    72    10     9    1
    73    69    70    1
    74     9    12    1
    75     9    11    1
    76    48    50   ar
    77    48    49    1
    78    50    51    1
    79    74    75    1
    80    74    72    1
    81    70    71    1
    82    70    72    2
    83    72    73    1
