@<TRIPOS>MOLECULE
1
 16 15 0 0 0
SMALL
GASTEIGER

@<TRIPOS>ATOM
      1 P           2.9316   21.4777   12.5117 P.3     1  UNL1        0.0000
      2 SI          3.6767   21.2908    9.4787 Si      1  UNL1        0.0000
      3 C           2.5624   21.7716   10.9166 C.2     1  UNL1        0.0000
      4 H           1.6203   22.2513   10.6731 H       1  UNL1        0.0000
      5 C           5.3765   20.7658   10.1519 C.3     1  UNL1        0.0000
      6 H           6.0493   20.4536    9.3593 H       1  UNL1        0.0000
      7 H           5.2712   19.9381   10.8458 H       1  UNL1        0.0000
      8 H           5.8496   21.5822   10.6883 H       1  UNL1        0.0000
      9 C           2.8697   19.8418    8.5294 C.3     1  UNL1        0.0000
     10 H           3.5030   19.4959    7.7183 H       1  UNL1        0.0000
     11 H           1.9178   20.1374    8.0993 H       1  UNL1        0.0000
     12 H           2.6856   19.0004    9.1906 H       1  UNL1        0.0000
     13 C           3.8579   22.7920    8.3102 C.3     1  UNL1        0.0000
     14 H           4.4536   22.5448    7.4370 H       1  UNL1        0.0000
     15 H           4.3399   23.6253    8.8127 H       1  UNL1        0.0000
     16 H           2.8888   23.1341    7.9598 H       1  UNL1        0.0000
@<TRIPOS>BOND
     1    14    13    1
     2    10     9    1
     3    16    13    1
     4    11     9    1
     5    13    15    1
     6    13     2    1
     7     9    12    1
     8     9     2    1
     9     6     5    1
    10     2     5    1
    11     2     3    1
    12     5     8    1
    13     5     7    1
    14     4     3    1
    15     3     1    2
