@<TRIPOS>MOLECULE
1
 34 36 0 0 0
SMALL
GASTEIGER

@<TRIPOS>ATOM
      1 P           1.0152    2.5275    9.1947 P.3     1  UNL1       -0.0131
      2 C           0.1376    1.5976    5.3662 C.ar    1  UNL1       -0.0611
      3 H          -0.6793    1.8174    4.6955 H       1  UNL1        0.0618
      4 C           2.6599    2.2752    9.9275 C.ar    1  UNL1       -0.0147
      5 C           0.2100   -0.0909    9.7279 C.ar    1  UNL1       -0.0535
      6 H           1.0308   -0.3832    9.0867 H       1  UNL1        0.0624
      7 C           1.1870    0.7913    4.9540 C.ar    1  UNL1       -0.0617
      8 H           1.1930    0.3805    3.9549 H       1  UNL1        0.0618
      9 C           2.9074    1.4575   11.0227 C.ar    1  UNL1       -0.0535
     10 H           2.1116    0.8549   11.4380 H       1  UNL1        0.0624
     11 C           1.1776    1.8339    7.5202 C.ar    1  UNL1       -0.0147
     12 C           0.1353    2.1215    6.6442 C.ar    1  UNL1       -0.0535
     13 H          -0.6730    2.7599    6.9805 H       1  UNL1        0.0624
     14 C           2.2336    1.0329    7.1021 C.ar    1  UNL1       -0.0535
     15 H           3.0540    0.8199    7.7753 H       1  UNL1        0.0624
     16 C          -0.0364    1.2594    9.9667 C.ar    1  UNL1       -0.0147
     17 C          -1.9038    0.6707   11.3562 C.ar    1  UNL1       -0.0611
     18 H          -2.7287    0.9657   11.9878 H       1  UNL1        0.0618
     19 C           2.2344    0.5164    5.8180 C.ar    1  UNL1       -0.0611
     20 H           3.0562   -0.1047    5.4913 H       1  UNL1        0.0618
     21 C           3.6791    3.0807    9.4183 C.ar    1  UNL1       -0.0535
     22 H           3.4716    3.7280    8.5699 H       1  UNL1        0.0624
     23 C          -0.5964   -1.0506   10.3095 C.ar    1  UNL1       -0.0611
     24 H          -0.4037   -2.0981   10.1258 H       1  UNL1        0.0618
     25 C           4.9374    3.0499    9.9860 C.ar    1  UNL1       -0.0611
     26 H           5.7241    3.6742    9.5888 H       1  UNL1        0.0618
     27 C          -1.6540   -0.6712   11.1230 C.ar    1  UNL1       -0.0617
     28 H          -2.2842   -1.4251   11.5722 H       1  UNL1        0.0618
     29 C           4.1697    1.4369   11.5909 C.ar    1  UNL1       -0.0611
     30 H           4.3595    0.8058   12.4471 H       1  UNL1        0.0618
     31 C           5.1821    2.2288   11.0762 C.ar    1  UNL1       -0.0617
     32 H           6.1623    2.2143   11.5299 H       1  UNL1        0.0618
     33 C          -1.0976    1.6364   10.7794 C.ar    1  UNL1       -0.0535
     34 H          -1.2807    2.6869   10.9678 H       1  UNL1        0.0624
@<TRIPOS>BOND
     1     8     7    1
     2     3     2    1
     3     7     2   ar
     4     7    19   ar
     5     2    12   ar
     6    20    19    1
     7    19    14   ar
     8    12    13    1
     9    12    11   ar
    10    14    11   ar
    11    14    15    1
    12    11     1    1
    13    22    21    1
    14     6     5    1
    15     1     4    1
    16     1    16    1
    17    21     4   ar
    18    21    25   ar
    19    26    25    1
    20     5    16   ar
    21     5    23   ar
    22     4     9   ar
    23    16    33   ar
    24    25    31   ar
    25    24    23    1
    26    23    27   ar
    27    33    34    1
    28    33    17   ar
    29     9    10    1
    30     9    29   ar
    31    31    32    1
    32    31    29   ar
    33    27    17   ar
    34    27    28    1
    35    17    18    1
    36    29    30    1
