@<TRIPOS>MOLECULE
1
 34 36 0 0 0
SMALL
GASTEIGER

@<TRIPOS>ATOM
      1 P           1.1339    6.8989   10.2015 P.3     1  UNL1       -0.0131
      2 C           5.5833    6.3589   11.1480 C.ar    1  UNL1       -0.0617
      3 H           6.6310    6.1900   11.3510 H       1  UNL1        0.0618
      4 C           0.3185    7.6133   11.6615 C.ar    1  UNL1       -0.0147
      5 C          -0.0548    8.3339    8.1988 C.ar    1  UNL1       -0.0535
      6 H          -0.7444    7.4958    8.2088 H       1  UNL1        0.0624
      7 C           3.3247    6.5645   11.9356 C.ar    1  UNL1       -0.0535
      8 H           2.6052    6.5381   12.7428 H       1  UNL1        0.0624
      9 C           2.8944    6.7990   10.6335 C.ar    1  UNL1       -0.0147
     10 C          -0.2385    9.3949    7.3323 C.ar    1  UNL1       -0.0611
     11 H          -1.0799    9.3992    6.6552 H       1  UNL1        0.0618
     12 C           0.2286    9.2319   13.4297 C.ar    1  UNL1       -0.0611
     13 H           0.6751   10.0545   13.9699 H       1  UNL1        0.0618
     14 C           4.6676    6.3472   12.1870 C.ar    1  UNL1       -0.0611
     15 H           4.9994    6.1624   13.1984 H       1  UNL1        0.0618
     16 C           1.9293    9.3821    9.0692 C.ar    1  UNL1       -0.0535
     17 H           2.7804    9.3742    9.7366 H       1  UNL1        0.0624
     18 C          -1.0037    8.7318   13.8215 C.ar    1  UNL1       -0.0617
     19 H          -1.5143    9.1650   14.6693 H       1  UNL1        0.0618
     20 C           0.8900    8.6800   12.3491 C.ar    1  UNL1       -0.0535
     21 H           1.8518    9.0683   12.0423 H       1  UNL1        0.0624
     22 C           1.0314    8.3211    9.0682 C.ar    1  UNL1       -0.0147
     23 C          -0.9224    7.1225   12.0469 C.ar    1  UNL1       -0.0535
     24 H          -1.3586    6.2924   11.5031 H       1  UNL1        0.0624
     25 C           5.1559    6.5750    9.8468 C.ar    1  UNL1       -0.0611
     26 H           5.8684    6.5739    9.0340 H       1  UNL1        0.0618
     27 C           3.8152    6.7823    9.5859 C.ar    1  UNL1       -0.0535
     28 H           3.4672    6.9355    8.5705 H       1  UNL1        0.0624
     29 C          -1.5797    7.6803   13.1286 C.ar    1  UNL1       -0.0611
     30 H          -2.5405    7.2923   13.4332 H       1  UNL1        0.0618
     31 C           0.6616   10.4485    7.3309 C.ar    1  UNL1       -0.0617
     32 H           0.5239   11.2768    6.6515 H       1  UNL1        0.0618
     33 C           1.7424   10.4401    8.1977 C.ar    1  UNL1       -0.0611
     34 H           2.4446   11.2614    8.1936 H       1  UNL1        0.0618
@<TRIPOS>BOND
     1    32    31    1
     2    11    10    1
     3    31    10   ar
     4    31    33   ar
     5    10     5   ar
     6    34    33    1
     7    33    16   ar
     8     5     6    1
     9     5    22   ar
    10    28    27    1
    11    26    25    1
    12    22    16   ar
    13    22     1    1
    14    16    17    1
    15    27    25   ar
    16    27     9   ar
    17    25     2   ar
    18     1     9    1
    19     1     4    1
    20     9     7   ar
    21     2     3    1
    22     2    14   ar
    23    24    23    1
    24     4    23   ar
    25     4    20   ar
    26     7    14   ar
    27     7     8    1
    28    21    20    1
    29    23    29   ar
    30    14    15    1
    31    20    12   ar
    32    29    30    1
    33    29    18   ar
    34    12    18   ar
    35    12    13    1
    36    18    19    1
