@<TRIPOS>MOLECULE
1
 26 26 0 0 0
SMALL
GASTEIGER

@<TRIPOS>ATOM
      1 P          -1.5425    4.8252    9.0593 P.3     1  UNL1        0.0000
      2 SI         -3.6965    4.5655    6.8729 Si      1  UNL1        0.0000
      3 C          -2.9976   -0.0634    6.3404 C.ar    1  UNL1        0.0000
      4 C          -3.6721    2.0535    5.4060 C.ar    1  UNL1        0.0000
      5 H          -3.9875    2.6278    4.5470 H       1  UNL1        0.0000
      6 C          -3.4133    0.7020    5.2597 C.ar    1  UNL1        0.0000
      7 H          -3.5268    0.2359    4.2899 H       1  UNL1        0.0000
      8 C          -2.8698    0.5569    7.5778 C.ar    1  UNL1        0.0000
      9 H          -2.5541   -0.0221    8.4343 H       1  UNL1        0.0000
     10 C          -3.5254    2.6861    6.6349 C.ar    1  UNL1        0.0000
     11 C          -3.1268    1.9054    7.7160 C.ar    1  UNL1        0.0000
     12 H          -2.9963    2.3743    8.6835 H       1  UNL1        0.0000
     13 C          -2.6581   -1.5137    6.1794 C.3     1  UNL1        0.0000
     14 H          -3.1468   -1.9363    5.3045 H       1  UNL1        0.0000
     15 H          -2.9544   -2.0801    7.0599 H       1  UNL1        0.0000
     16 H          -1.5798   -1.6261    6.0559 H       1  UNL1        0.0000
     17 C          -1.9882    5.0735    7.4745 C.3     1  UNL1        0.0000
     18 H          -1.2352    5.3354    6.7398 H       1  UNL1        0.0000
     19 C          -5.0066    4.9411    8.2015 C.3     1  UNL1        0.0000
     20 H          -5.9595    4.4732    7.9745 H       1  UNL1        0.0000
     21 H          -5.1733    6.0093    8.2959 H       1  UNL1        0.0000
     22 H          -4.6732    4.5746    9.1670 H       1  UNL1        0.0000
     23 C          -4.1196    5.4293    5.2299 C.3     1  UNL1        0.0000
     24 H          -3.3575    5.2503    4.4786 H       1  UNL1        0.0000
     25 H          -4.1987    6.5024    5.3686 H       1  UNL1        0.0000
     26 H          -5.0675    5.0795    4.8345 H       1  UNL1        0.0000
@<TRIPOS>BOND
     1     7     6    1
     2    24    23    1
     3     5     4    1
     4    26    23    1
     5    23    25    1
     6    23     2    1
     7     6     4   ar
     8     6     3   ar
     9    14    13    1
    10     4    10   ar
    11    16    13    1
    12    13     3    1
    13    13    15    1
    14     3     8   ar
    15    10     2    1
    16    10    11   ar
    17    18    17    1
    18     2    17    1
    19     2    19    1
    20    17     1    1
    21     8    11   ar
    22     8     9    1
    23    11    12    1
    24    20    19    1
    25    19    21    1
    26    19    22    1
