@<TRIPOS>MOLECULE
1
 34 36 0 0 0
SMALL
GASTEIGER

@<TRIPOS>ATOM
      1 P           1.9785   24.3519   14.2917 P.3     1  UNL1       -0.0131
      2 C           0.9668   24.9037   15.6953 C.ar    1  UNL1       -0.0147
      3 C           1.4856   25.1867   16.9531 C.ar    1  UNL1       -0.0535
      4 H           2.5543   25.1607   17.1138 H       1  UNL1        0.0624
      5 C           0.6273   25.4784   17.9993 C.ar    1  UNL1       -0.0611
      6 H           1.0316   25.6950   18.9775 H       1  UNL1        0.0618
      7 C          -0.7433   25.4842   17.7999 C.ar    1  UNL1       -0.0617
      8 H          -1.4069   25.7118   18.6217 H       1  UNL1        0.0618
      9 C          -1.2656   25.1849   16.5505 C.ar    1  UNL1       -0.0611
     10 H          -2.3349   25.1766   16.3946 H       1  UNL1        0.0618
     11 C          -0.4154   24.8848   15.5035 C.ar    1  UNL1       -0.0535
     12 H          -0.8136   24.6317   14.5259 H       1  UNL1        0.0624
     13 C           3.6745   24.8752   14.6858 C.ar    1  UNL1       -0.0147
     14 C           4.7317   23.9814   14.5872 C.ar    1  UNL1       -0.0535
     15 H           4.5393   22.9511   14.3129 H       1  UNL1        0.0624
     16 C           6.0209   24.4064   14.8565 C.ar    1  UNL1       -0.0611
     17 H           6.8421   23.7084   14.7865 H       1  UNL1        0.0618
     18 C           6.2566   25.7220   15.2176 C.ar    1  UNL1       -0.0617
     19 H           7.2627   26.0521   15.4315 H       1  UNL1        0.0618
     20 C           5.2033   26.6204   15.3021 C.ar    1  UNL1       -0.0611
     21 H           5.3896   27.6484   15.5778 H       1  UNL1        0.0618
     22 C           3.9146   26.2032   15.0317 C.ar    1  UNL1       -0.0535
     23 H           3.0888   26.9006   15.0880 H       1  UNL1        0.0624
     24 C           1.6111   25.5636   12.9802 C.ar    1  UNL1       -0.0147
     25 C           2.1328   25.2495   11.7278 C.ar    1  UNL1       -0.0535
     26 H           2.6883   24.3252   11.6091 H       1  UNL1        0.0624
     27 C           1.9340   26.0995   10.6578 C.ar    1  UNL1       -0.0611
     28 H           2.3354   25.8485    9.6870 H       1  UNL1        0.0618
     29 C           1.2133   27.2709   10.8328 C.ar    1  UNL1       -0.0617
     30 H           1.0512   27.9360    9.9974 H       1  UNL1        0.0618
     31 C           0.6985   27.5891   12.0781 C.ar    1  UNL1       -0.0611
     32 H           0.1379   28.5030   12.2135 H       1  UNL1        0.0618
     33 C           0.8962   26.7412   13.1545 C.ar    1  UNL1       -0.0535
     34 H           0.4875   26.9936   14.1237 H       1  UNL1        0.0624
@<TRIPOS>BOND
     1    28    27    1
     2    30    29    1
     3    27    29   ar
     4    27    25   ar
     5    29    31   ar
     6    26    25    1
     7    25    24   ar
     8    31    32    1
     9    31    33   ar
    10    24    33   ar
    11    24     1    1
    12    33    34    1
    13     1    13    1
    14     1     2    1
    15    15    14    1
    16    12    11    1
    17    14    13   ar
    18    14    16   ar
    19    13    22   ar
    20    17    16    1
    21    16    18   ar
    22    22    23    1
    23    22    20   ar
    24    18    20   ar
    25    18    19    1
    26    20    21    1
    27    11     2   ar
    28    11     9   ar
    29     2     3   ar
    30    10     9    1
    31     9     7   ar
    32     3     4    1
    33     3     5   ar
    34     7     5   ar
    35     7     8    1
    36     5     6    1
