@<TRIPOS>MOLECULE
1
 34 36 0 0 0
SMALL
GASTEIGER

@<TRIPOS>ATOM
      1 P           0.4618   20.0859   14.4101 P.3     1  UNL1       -0.0131
      2 C           0.1357   18.8690   13.0958 C.ar    1  UNL1       -0.0147
      3 C           0.0568   19.3108   11.7803 C.ar    1  UNL1       -0.0535
      4 H           0.1981   20.3629   11.5702 H       1  UNL1        0.0624
      5 C          -0.1885   18.4115   10.7585 C.ar    1  UNL1       -0.0611
      6 H          -0.2444   18.7591    9.7378 H       1  UNL1        0.0618
      7 C          -0.3567   17.0670   11.0458 C.ar    1  UNL1       -0.0617
      8 H          -0.5448   16.3628   10.2487 H       1  UNL1        0.0618
      9 C          -0.2798   16.6219   12.3564 C.ar    1  UNL1       -0.0611
     10 H          -0.4112   15.5730   12.5797 H       1  UNL1        0.0618
     11 C          -0.0323   17.5165   13.3811 C.ar    1  UNL1       -0.0535
     12 H           0.0342   17.1698   14.4037 H       1  UNL1        0.0624
     13 C           1.3504   19.0542   15.6152 C.ar    1  UNL1       -0.0147
     14 C           2.6410   18.6749   15.2536 C.ar    1  UNL1       -0.0535
     15 H           3.0345   18.9947   14.2941 H       1  UNL1        0.0624
     16 C           3.4078   17.9214   16.1192 C.ar    1  UNL1       -0.0611
     17 H           4.4112   17.6332   15.8419 H       1  UNL1        0.0618
     18 C           2.8919   17.5465   17.3508 C.ar    1  UNL1       -0.0617
     19 H           3.4935   16.9632   18.0325 H       1  UNL1        0.0618
     20 C           1.6117   17.9280   17.7138 C.ar    1  UNL1       -0.0611
     21 H           1.2145   17.6421   18.6772 H       1  UNL1        0.0618
     22 C           0.8367   18.6842   16.8509 C.ar    1  UNL1       -0.0535
     23 H          -0.1599   18.9906   17.1399 H       1  UNL1        0.0624
     24 C          -1.1635   20.3541   15.1822 C.ar    1  UNL1       -0.0147
     25 C          -2.3028   19.6113   14.8970 C.ar    1  UNL1       -0.0535
     26 H          -2.2543   18.7986   14.1859 H       1  UNL1        0.0624
     27 C          -3.4983   19.9231   15.5213 C.ar    1  UNL1       -0.0611
     28 H          -4.3845   19.3471   15.2974 H       1  UNL1        0.0618
     29 C          -3.5638   20.9688   16.4275 C.ar    1  UNL1       -0.0617
     30 H          -4.5008   21.2056   16.9101 H       1  UNL1        0.0618
     31 C          -2.4305   21.7151   16.7113 C.ar    1  UNL1       -0.0611
     32 H          -2.4775   22.5333   17.4153 H       1  UNL1        0.0618
     33 C          -1.2365   21.4141   16.0856 C.ar    1  UNL1       -0.0535
     34 H          -0.3443   21.9963   16.3043 H       1  UNL1        0.0624
@<TRIPOS>BOND
     1     6     5    1
     2     8     7    1
     3     5     7   ar
     4     5     3   ar
     5     7     9   ar
     6     4     3    1
     7     3     2   ar
     8     9    10    1
     9     9    11   ar
    10     2    11   ar
    11     2     1    1
    12    11    12    1
    13    26    25    1
    14    15    14    1
    15     1    24    1
    16     1    13    1
    17    25    24   ar
    18    25    27   ar
    19    24    33   ar
    20    14    13   ar
    21    14    16   ar
    22    28    27    1
    23    27    29   ar
    24    13    22   ar
    25    17    16    1
    26    33    34    1
    27    33    31   ar
    28    16    18   ar
    29    29    31   ar
    30    29    30    1
    31    31    32    1
    32    22    23    1
    33    22    20   ar
    34    18    20   ar
    35    18    19    1
    36    20    21    1
