@<TRIPOS>MOLECULE
1
 55 55 0 0 0
SMALL
GASTEIGER

@<TRIPOS>ATOM
      1 P           2.5381   10.0898   11.2510 P.3     1  UNL1        0.0000
      2 P           2.2130   11.6449   12.7197 P.3     1  UNL1        0.0000
      3 SI          5.5231   10.6953   11.2247 Si      1  UNL1        0.0000
      4 SI          4.4619    8.0613   12.9043 Si      1  UNL1        0.0000
      5 SI         -0.3226   10.1836   14.6479 Si      1  UNL1        0.0000
      6 N           0.6048    9.3558   13.3653 N.3     1  UNL1        0.0000
      7 C           4.2069    9.2998   11.4607 C.3     1  UNL1        0.0000
      8 H           4.2728    8.6900   10.5514 H       1  UNL1        0.0000
      9 C           5.9279   11.5154   12.8982 C.3     1  UNL1        0.0000
     10 H           6.3581   10.8146   13.6052 H       1  UNL1        0.0000
     11 H           5.0357   11.9408   13.3496 H       1  UNL1        0.0000
     12 H           6.6412   12.3215   12.7597 H       1  UNL1        0.0000
     13 C           4.8673   12.0396   10.0441 C.3     1  UNL1        0.0000
     14 H           5.6129   12.8093    9.8671 H       1  UNL1        0.0000
     15 H           3.9881   12.5275   10.4584 H       1  UNL1        0.0000
     16 H           4.5940   11.6222    9.0779 H       1  UNL1        0.0000
     17 C           7.0809    9.9486   10.4207 C.3     1  UNL1        0.0000
     18 H           7.7819   10.7361   10.1656 H       1  UNL1        0.0000
     19 H           6.8401    9.4173    9.5054 H       1  UNL1        0.0000
     20 H           7.5920    9.2581   11.0802 H       1  UNL1        0.0000
     21 C           3.8543    8.7325   14.5820 C.3     1  UNL1        0.0000
     22 H           4.1701    8.0785   15.3899 H       1  UNL1        0.0000
     23 H           2.7752    8.8182   14.6272 H       1  UNL1        0.0000
     24 H           4.2636    9.7188   14.7764 H       1  UNL1        0.0000
     25 C           3.6273    6.4133   12.4045 C.3     1  UNL1        0.0000
     26 H           3.3767    5.8073   13.2695 H       1  UNL1        0.0000
     27 H           4.3033    5.8282   11.7871 H       1  UNL1        0.0000
     28 H           2.7191    6.5602   11.8290 H       1  UNL1        0.0000
     29 C           6.3116    7.6437   13.1112 C.3     1  UNL1        0.0000
     30 H           6.8991    8.4986   13.4256 H       1  UNL1        0.0000
     31 H           6.7396    7.2679   12.1882 H       1  UNL1        0.0000
     32 H           6.4332    6.8697   13.8624 H       1  UNL1        0.0000
     33 C           1.5188   10.0869   12.7295 C.3     1  UNL1        0.0000
     34 C          -1.4759    9.0366   15.6349 C.3     1  UNL1        0.0000
     35 H          -2.1933    8.5005   15.0250 H       1  UNL1        0.0000
     36 H          -2.0434    9.6570   16.3208 H       1  UNL1        0.0000
     37 H          -0.9301    8.3162   16.2341 H       1  UNL1        0.0000
     38 C           0.9341   10.8895   15.8939 C.3     1  UNL1        0.0000
     39 H           1.4941   10.1086   16.4008 H       1  UNL1        0.0000
     40 H           0.4207   11.4685   16.6548 H       1  UNL1        0.0000
     41 H           1.6487   11.5480   15.4097 H       1  UNL1        0.0000
     42 C          -1.3403   11.5444   13.7887 C.3     1  UNL1        0.0000
     43 H          -0.6974   12.1756   13.1806 H       1  UNL1        0.0000
     44 H          -1.8371   12.1840   14.5111 H       1  UNL1        0.0000
     45 H          -2.1029   11.1319   13.1334 H       1  UNL1        0.0000
     46 C           0.2970    8.0547   12.7813 C.3     1  UNL1        0.0000
     47 H           1.0558    7.8998   12.0006 H       1  UNL1        0.0000
     48 C           0.4145    6.9266   13.8001 C.3     1  UNL1        0.0000
     49 H           1.3403    7.0150   14.3615 H       1  UNL1        0.0000
     50 H           0.4168    5.9726   13.2790 H       1  UNL1        0.0000
     51 H          -0.4215    6.9386   14.4903 H       1  UNL1        0.0000
     52 C          -1.0751    8.0534   12.1149 C.3     1  UNL1        0.0000
     53 H          -1.8614    8.2078   12.8479 H       1  UNL1        0.0000
     54 H          -1.2389    7.0992   11.6202 H       1  UNL1        0.0000
     55 H          -1.1338    8.8412   11.3682 H       1  UNL1        0.0000
@<TRIPOS>BOND
     1    16    13    1
     2    19    17    1
     3    14    13    1
     4    13    15    1
     5    13     3    1
     6    18    17    1
     7    17    20    1
     8    17     3    1
     9     8     7    1
    10     3     7    1
    11     3     9    1
    12     1     7    1
    13     1     2    1
    14     1    33    1
    15    55    52    1
    16     7     4    1
    17    54    52    1
    18    27    25    1
    19    28    25    1
    20    47    46    1
    21    52    46    1
    22    52    53    1
    23    31    29    1
    24    25     4    1
    25    25    26    1
    26     2    33    1
    27    33     6    1
    28    12     9    1
    29    46     6    1
    30    46    48    1
    31     9    11    1
    32     9    10    1
    33     4    29    1
    34     4    21    1
    35    29    30    1
    36    29    32    1
    37    45    42    1
    38    43    42    1
    39    50    48    1
    40     6     5    1
    41    42    44    1
    42    42     5    1
    43    48    49    1
    44    48    51    1
    45    21    23    1
    46    21    24    1
    47    21    22    1
    48     5    34    1
    49     5    38    1
    50    35    34    1
    51    41    38    1
    52    34    37    1
    53    34    36    1
    54    38    39    1
    55    38    40    1
