@<TRIPOS>MOLECULE
1
 36 36 0 0 0
SMALL
GASTEIGER

@<TRIPOS>ATOM
      1 P          -3.3614    0.2776  -18.2983 P.3     1  UNL1        0.0000
      2 SI         -4.9032    2.3887  -20.0367 Si      1  UNL1        0.0000
      3 SI         -4.5309   -0.8231  -20.8987 Si      1  UNL1        0.0000
      4 O          -3.8150    1.5190  -17.2746 O.3     1  UNL1        0.0000
      5 C          -4.7491    0.7470  -16.5026 C.3     1  UNL1        0.0000
      6 H          -5.6941    1.2855  -16.4063 H       1  UNL1        0.0000
      7 H          -4.3458    0.5596  -15.5040 H       1  UNL1        0.0000
      8 C          -4.7900   -0.4980  -17.3908 C.3     1  UNL1        0.0000
      9 H          -5.7005   -0.5782  -17.9800 H       1  UNL1        0.0000
     10 H          -4.5844   -1.4348  -16.8757 H       1  UNL1        0.0000
     11 C          -3.9062    0.7422  -19.9657 C.3     1  UNL1        0.0000
     12 H          -2.9585    0.9877  -20.4588 H       1  UNL1        0.0000
     13 C          -6.5321    2.3664  -19.0393 C.3     1  UNL1        0.0000
     14 H          -6.9600    1.3735  -18.9489 H       1  UNL1        0.0000
     15 H          -6.3761    2.7569  -18.0394 H       1  UNL1        0.0000
     16 H          -7.2729    2.9980  -19.5199 H       1  UNL1        0.0000
     17 C          -3.7642    3.8043  -19.4644 C.3     1  UNL1        0.0000
     18 H          -2.9085    3.9121  -20.1255 H       1  UNL1        0.0000
     19 H          -4.2891    4.7552  -19.4526 H       1  UNL1        0.0000
     20 H          -3.3847    3.6201  -18.4644 H       1  UNL1        0.0000
     21 C          -5.3369    2.6926  -21.8705 C.3     1  UNL1        0.0000
     22 H          -4.4494    2.6993  -22.4939 H       1  UNL1        0.0000
     23 H          -6.0132    1.9437  -22.2674 H       1  UNL1        0.0000
     24 H          -5.8177    3.6584  -21.9818 H       1  UNL1        0.0000
     25 C          -6.4366   -0.9570  -20.8642 C.3     1  UNL1        0.0000
     26 H          -6.9154   -0.0145  -21.1060 H       1  UNL1        0.0000
     27 H          -6.7626   -1.6863  -21.5987 H       1  UNL1        0.0000
     28 H          -6.8153   -1.2855  -19.9011 H       1  UNL1        0.0000
     29 C          -3.9237   -0.6950  -22.6998 C.3     1  UNL1        0.0000
     30 H          -2.8404   -0.6431  -22.7492 H       1  UNL1        0.0000
     31 H          -4.2342   -1.5641  -23.2703 H       1  UNL1        0.0000
     32 H          -4.3188    0.1827  -23.1993 H       1  UNL1        0.0000
     33 C          -3.7994   -2.4045  -20.1271 C.3     1  UNL1        0.0000
     34 H          -2.7166   -2.4222  -20.2168 H       1  UNL1        0.0000
     35 H          -4.0420   -2.4913  -19.0721 H       1  UNL1        0.0000
     36 H          -4.1794   -3.2932  -20.6229 H       1  UNL1        0.0000
@<TRIPOS>BOND
     1    31    29    1
     2    32    29    1
     3    30    29    1
     4    29     3    1
     5    22    21    1
     6    23    21    1
     7    24    21    1
     8    21     2    1
     9    27    25    1
    10    26    25    1
    11     3    25    1
    12     3    33    1
    13     3    11    1
    14    25    28    1
    15    36    33    1
    16    12    11    1
    17    34    33    1
    18    33    35    1
    19    18    17    1
    20     2    11    1
    21     2    17    1
    22     2    13    1
    23    11     1    1
    24    16    13    1
    25    17    19    1
    26    17    20    1
    27    13    14    1
    28    13    15    1
    29     1     8    1
    30     1     4    1
    31     9     8    1
    32     8    10    1
    33     8     5    1
    34     4     5    1
    35     5     6    1
    36     5     7    1
