@<TRIPOS>MOLECULE
2
 38 37 0 0 0
SMALL
GASTEIGER

@<TRIPOS>ATOM
      1 I           6.3534    2.4083    5.8112 I       1  UNL1        0.0000
      2 P           1.5701    0.4592    3.7315 P.3     1  UNL1        0.0000
      3 H           0.7089    0.5275    4.8555 H       1  UNL1        0.0000
      4 SI          2.7849   -1.9593    2.3260 Si      1  UNL1        0.0000
      5 SI          0.1859   -2.1870    4.3784 Si      1  UNL1        0.0000
      6 O           2.9462    0.1112    4.5207 O.3     1  UNL1        0.0000
      7 C           3.6928    1.1265    5.1677 C.3     1  UNL1        0.0000
      8 H           3.3582    2.1218    4.8420 H       1  UNL1        0.0000
      9 H           3.5380    1.0482    6.2507 H       1  UNL1        0.0000
     10 C           3.9318   -0.6650    1.5153 C.3     1  UNL1        0.0000
     11 H           3.7205    0.3362    1.8814 H       1  UNL1        0.0000
     12 H           3.8097   -0.6483    0.4364 H       1  UNL1        0.0000
     13 H           4.9765   -0.8822    1.7182 H       1  UNL1        0.0000
     14 C           5.1560    0.9281    4.8255 C.3     1  UNL1        0.0000
     15 H           5.3241    1.0352    3.7574 H       1  UNL1        0.0000
     16 H           5.5049   -0.0474    5.1544 H       1  UNL1        0.0000
     17 C          -1.5410   -1.3761    4.4798 C.3     1  UNL1        0.0000
     18 H          -2.0883   -1.5065    3.5502 H       1  UNL1        0.0000
     19 H          -1.4813   -0.3082    4.6714 H       1  UNL1        0.0000
     20 H          -2.1385   -1.8173    5.2717 H       1  UNL1        0.0000
     21 C          -0.0444   -3.9851    3.7959 C.3     1  UNL1        0.0000
     22 H          -0.6819   -4.5187    4.4923 H       1  UNL1        0.0000
     23 H           0.8947   -4.5230    3.7340 H       1  UNL1        0.0000
     24 H          -0.5186   -4.0307    2.8214 H       1  UNL1        0.0000
     25 C           3.7633   -2.9193    3.6528 C.3     1  UNL1        0.0000
     26 H           4.6993   -3.2840    3.2411 H       1  UNL1        0.0000
     27 H           3.2094   -3.7806    4.0102 H       1  UNL1        0.0000
     28 H           3.9953   -2.2951    4.5085 H       1  UNL1        0.0000
     29 C           1.0410   -2.1662    6.0811 C.3     1  UNL1        0.0000
     30 H           1.3183   -1.1579    6.3737 H       1  UNL1        0.0000
     31 H           1.9438   -2.7676    6.0836 H       1  UNL1        0.0000
     32 H           0.3819   -2.5608    6.8487 H       1  UNL1        0.0000
     33 C           1.1932   -1.1808    3.0838 C.3     1  UNL1        0.0000
     34 H           0.5158   -0.9836    2.2474 H       1  UNL1        0.0000
     35 C           2.2138   -3.1503    0.9511 C.3     1  UNL1        0.0000
     36 H           1.6622   -2.6287    0.1750 H       1  UNL1        0.0000
     37 H           1.5783   -3.9410    1.3321 H       1  UNL1        0.0000
     38 H           3.0722   -3.6182    0.4813 H       1  UNL1        0.0000
@<TRIPOS>BOND
     1    36    35    1
     2    12    10    1
     3    38    35    1
     4    35    37    1
     5    35     4    1
     6    10    13    1
     7    10    11    1
     8    10     4    1
     9    34    33    1
    10     4    33    1
    11     4    25    1
    12    24    21    1
    13    33     2    1
    14    33     5    1
    15    26    25    1
    16    18    17    1
    17    25    27    1
    18    25    28    1
    19     2     6    1
    20     2     3    1
    21    23    21    1
    22    15    14    1
    23    21     5    1
    24    21    22    1
    25     5    17    1
    26     5    29    1
    27    17    19    1
    28    17    20    1
    29     6     7    1
    30    14    16    1
    31    14     7    1
    32    14     1    1
    33     8     7    1
    34     7     9    1
    35    29    31    1
    36    29    30    1
    37    29    32    1
