@<TRIPOS>MOLECULE
1
 39 39 0 0 0
SMALL
GASTEIGER

@<TRIPOS>ATOM
      1 P           2.7071    9.5199   14.4024 P.3     1  UNL1        0.0000
      2 SI          4.1947   12.2037   14.5788 Si      1  UNL1        0.0000
      3 SI          3.7095   10.6747   11.6571 Si      1  UNL1        0.0000
      4 O           2.6423    8.3431   13.2624 O.3     1  UNL1        0.0000
      5 C           3.2898    7.1335   13.6370 C.3     1  UNL1        0.0000
      6 H           4.0302    6.9024   12.8626 H       1  UNL1        0.0000
      7 H           2.5537    6.3243   13.6562 H       1  UNL1        0.0000
      8 C           3.9569    7.3231   15.0038 C.3     1  UNL1        0.0000
      9 H           4.8440    6.6969   15.0988 H       1  UNL1        0.0000
     10 H           3.2503    7.0484   15.7920 H       1  UNL1        0.0000
     11 C           4.2657    8.8118   15.1014 C.3     1  UNL1        0.0000
     12 H           5.1021    9.0872   14.4549 H       1  UNL1        0.0000
     13 H           4.4647    9.1273   16.1221 H       1  UNL1        0.0000
     14 C           3.1549   11.0153   13.4713 C.3     1  UNL1        0.0000
     15 H           2.1900   11.5243   13.3624 H       1  UNL1        0.0000
     16 C           3.9405   11.9077   16.4501 C.3     1  UNL1        0.0000
     17 H           3.1145   11.2278   16.6447 H       1  UNL1        0.0000
     18 H           3.7153   12.8405   16.9585 H       1  UNL1        0.0000
     19 H           4.8298   11.4954   16.9180 H       1  UNL1        0.0000
     20 C           3.6228   13.9777   14.1793 C.3     1  UNL1        0.0000
     21 H           3.7204   14.2105   13.1250 H       1  UNL1        0.0000
     22 H           4.2150   14.7009   14.7307 H       1  UNL1        0.0000
     23 H           2.5838   14.1293   14.4558 H       1  UNL1        0.0000
     24 C           6.0670   12.0422   14.2349 C.3     1  UNL1        0.0000
     25 H           6.4650   11.0759   14.5280 H       1  UNL1        0.0000
     26 H           6.6033   12.7956   14.8031 H       1  UNL1        0.0000
     27 H           6.3033   12.1967   13.1883 H       1  UNL1        0.0000
     28 C           4.1334   12.3575   10.8609 C.3     1  UNL1        0.0000
     29 H           3.2876   13.0359   10.8917 H       1  UNL1        0.0000
     30 H           4.3950   12.2157    9.8178 H       1  UNL1        0.0000
     31 H           4.9700   12.8507   11.3422 H       1  UNL1        0.0000
     32 C           5.2635    9.5733   11.5238 C.3     1  UNL1        0.0000
     33 H           6.0852    9.9449   12.1276 H       1  UNL1        0.0000
     34 H           5.6049    9.5471   10.4934 H       1  UNL1        0.0000
     35 H           5.0635    8.5509   11.8226 H       1  UNL1        0.0000
     36 C           2.2551    9.9597   10.6530 C.3     1  UNL1        0.0000
     37 H           1.9305    8.9999   11.0387 H       1  UNL1        0.0000
     38 H           2.5290    9.8272    9.6102 H       1  UNL1        0.0000
     39 H           1.3990   10.6282   10.6828 H       1  UNL1        0.0000
@<TRIPOS>BOND
     1    38    36    1
     2    30    28    1
     3    34    32    1
     4    36    39    1
     5    36    37    1
     6    36     3    1
     7    28    29    1
     8    28    31    1
     9    28     3    1
    10    32     3    1
    11    32    35    1
    12    32    33    1
    13     3    14    1
    14     6     5    1
    15    21    20    1
    16    27    24    1
    17     4     5    1
    18     4     1    1
    19    15    14    1
    20    14     1    1
    21    14     2    1
    22     5     7    1
    23     5     8    1
    24    20    23    1
    25    20     2    1
    26    20    22    1
    27    24    25    1
    28    24     2    1
    29    24    26    1
    30     1    11    1
    31    12    11    1
    32     2    16    1
    33     8     9    1
    34     8    11    1
    35     8    10    1
    36    11    13    1
    37    16    17    1
    38    16    19    1
    39    16    18    1
