@<TRIPOS>MOLECULE
1
 34 36 0 0 0
SMALL
GASTEIGER

@<TRIPOS>ATOM
      1 P           2.0006    6.3366    8.1616 P.3     1  UNL1       -0.0131
      2 C           3.1790    7.1849    7.0403 C.ar    1  UNL1       -0.0147
      3 C           3.6790    8.4510    7.3081 C.ar    1  UNL1       -0.0535
      4 H           3.3999    8.9559    8.2192 H       1  UNL1        0.0624
      5 C           4.5025    9.0810    6.3899 C.ar    1  UNL1       -0.0611
      6 H           4.8638   10.0801    6.5876 H       1  UNL1        0.0618
      7 C           4.8540    8.4456    5.2130 C.ar    1  UNL1       -0.0617
      8 H           5.4992    8.9384    4.5002 H       1  UNL1        0.0618
      9 C           4.3706    7.1740    4.9476 C.ar    1  UNL1       -0.0611
     10 H           4.6402    6.6722    4.0295 H       1  UNL1        0.0618
     11 C           3.5316    6.5503    5.8497 C.ar    1  UNL1       -0.0535
     12 H           3.1397    5.5671    5.6271 H       1  UNL1        0.0624
     13 C           2.7128    4.6578    7.9568 C.ar    1  UNL1       -0.0147
     14 C           3.9899    4.5202    8.4988 C.ar    1  UNL1       -0.0535
     15 H           4.4535    5.3845    8.9564 H       1  UNL1        0.0624
     16 C           4.6581    3.3139    8.4371 C.ar    1  UNL1       -0.0611
     17 H           5.6496    3.2198    8.8566 H       1  UNL1        0.0618
     18 C           4.0534    2.2216    7.8338 C.ar    1  UNL1       -0.0617
     19 H           4.5684    1.2733    7.7882 H       1  UNL1        0.0618
     20 C           2.7917    2.3535    7.2810 C.ar    1  UNL1       -0.0611
     21 H           2.3238    1.5088    6.7956 H       1  UNL1        0.0618
     22 C           2.1216    3.5652    7.3373 C.ar    1  UNL1       -0.0535
     23 H           1.1476    3.6557    6.8796 H       1  UNL1        0.0624
     24 C           0.5229    6.3543    7.0857 C.ar    1  UNL1       -0.0147
     25 C           0.3666    7.3534    6.1295 C.ar    1  UNL1       -0.0535
     26 H           1.1236    8.1151    6.0198 H       1  UNL1        0.0624
     27 C          -0.7635    7.3895    5.3339 C.ar    1  UNL1       -0.0611
     28 H          -0.8741    8.1738    4.5994 H       1  UNL1        0.0618
     29 C          -1.7480    6.4262    5.4728 C.ar    1  UNL1       -0.0617
     30 H          -2.6225    6.4457    4.8392 H       1  UNL1        0.0618
     31 C          -1.6161    5.4484    6.4431 C.ar    1  UNL1       -0.0611
     32 H          -2.3913    4.7077    6.5763 H       1  UNL1        0.0618
     33 C          -0.5015    5.4275    7.2613 C.ar    1  UNL1       -0.0535
     34 H          -0.4397    4.6896    8.0482 H       1  UNL1        0.0624
@<TRIPOS>BOND
     1    10     9    1
     2     8     7    1
     3    28    27    1
     4    30    29    1
     5     9     7   ar
     6     9    11   ar
     7     7     5   ar
     8    27    29   ar
     9    27    25   ar
    10    29    31   ar
    11    12    11    1
    12    11     2   ar
    13    26    25    1
    14    25    24   ar
    15     5     6    1
    16     5     3   ar
    17    31    32    1
    18    31    33   ar
    19    21    20    1
    20    23    22    1
    21     2     3   ar
    22     2     1    1
    23    24    33   ar
    24    24     1    1
    25    33    34    1
    26    20    22   ar
    27    20    18   ar
    28     3     4    1
    29    22    13   ar
    30    19    18    1
    31    18    16   ar
    32    13     1    1
    33    13    14   ar
    34    16    14   ar
    35    16    17    1
    36    14    15    1
