@<TRIPOS>MOLECULE
1
 34 36 0 0 0
SMALL
GASTEIGER

@<TRIPOS>ATOM
      1 P          -0.5087    6.5262   10.6800 P.3     1  UNL1       -0.0131
      2 C          -1.9387    6.7854    9.5547 C.ar    1  UNL1       -0.0147
      3 C          -1.9959    7.9480    8.7907 C.ar    1  UNL1       -0.0535
      4 H          -1.1727    8.6465    8.8152 H       1  UNL1        0.0624
      5 C          -3.0873    8.2023    7.9802 C.ar    1  UNL1       -0.0611
      6 H          -3.1128    9.1076    7.3918 H       1  UNL1        0.0618
      7 C          -4.1380    7.3038    7.9224 C.ar    1  UNL1       -0.0617
      8 H          -4.9916    7.5020    7.2906 H       1  UNL1        0.0618
      9 C          -4.0863    6.1442    8.6766 C.ar    1  UNL1       -0.0611
     10 H          -4.9007    5.4345    8.6354 H       1  UNL1        0.0618
     11 C          -2.9962    5.8828    9.4867 C.ar    1  UNL1       -0.0535
     12 H          -2.9751    4.9668   10.0578 H       1  UNL1        0.0624
     13 C          -0.7648    4.7680   11.1308 C.ar    1  UNL1       -0.0147
     14 C          -0.0222    3.7968   10.4693 C.ar    1  UNL1       -0.0535
     15 H           0.7219    4.1037    9.7477 H       1  UNL1        0.0624
     16 C          -0.2143    2.4529   10.7337 C.ar    1  UNL1       -0.0611
     17 H           0.3749    1.7138   10.2103 H       1  UNL1        0.0618
     18 C          -1.1568    2.0608   11.6689 C.ar    1  UNL1       -0.0617
     19 H          -1.3080    1.0130   11.8824 H       1  UNL1        0.0618
     20 C          -1.9078    3.0195   12.3297 C.ar    1  UNL1       -0.0611
     21 H          -2.6497    2.7188   13.0553 H       1  UNL1        0.0618
     22 C          -1.7188    4.3636   12.0615 C.ar    1  UNL1       -0.0535
     23 H          -2.3190    5.1011   12.5755 H       1  UNL1        0.0624
     24 C          -1.1357    7.3772   12.1728 C.ar    1  UNL1       -0.0147
     25 C          -0.7106    6.9446   13.4280 C.ar    1  UNL1       -0.0535
     26 H          -0.0774    6.0707   13.5034 H       1  UNL1        0.0624
     27 C          -1.0969    7.6195   14.5694 C.ar    1  UNL1       -0.0611
     28 H          -0.7681    7.2714   15.5383 H       1  UNL1        0.0618
     29 C          -1.9007    8.7447   14.4724 C.ar    1  UNL1       -0.0617
     30 H          -2.2003    9.2741   15.3650 H       1  UNL1        0.0618
     31 C          -2.3116    9.1901   13.2280 C.ar    1  UNL1       -0.0611
     32 H          -2.9308   10.0716   13.1472 H       1  UNL1        0.0618
     33 C          -1.9309    8.5132   12.0819 C.ar    1  UNL1       -0.0535
     34 H          -2.2479    8.8717   11.1136 H       1  UNL1        0.0624
@<TRIPOS>BOND
     1     8     7    1
     2     6     5    1
     3     7     5   ar
     4     7     9   ar
     5     5     3   ar
     6    10     9    1
     7     9    11   ar
     8     3     4    1
     9     3     2   ar
    10    11     2   ar
    11    11    12    1
    12     2     1    1
    13    15    14    1
    14    17    16    1
    15    14    16   ar
    16    14    13   ar
    17     1    13    1
    18     1    24    1
    19    16    18   ar
    20    34    33    1
    21    13    22   ar
    22    18    19    1
    23    18    20   ar
    24    22    20   ar
    25    22    23    1
    26    33    24   ar
    27    33    31   ar
    28    24    25   ar
    29    20    21    1
    30    32    31    1
    31    31    29   ar
    32    25    26    1
    33    25    27   ar
    34    29    27   ar
    35    29    30    1
    36    27    28    1
