@<TRIPOS>MOLECULE
1
 52 54 0 0 0
SMALL
GASTEIGER

@<TRIPOS>ATOM
      1 P           2.1348    3.3018    7.2377 P.3     1  UNL1       -0.0964
      2 C           1.1720    4.8534    6.7840 C.3     1  UNL1       -0.0200
      3 C           1.2795    6.0595    7.7132 C.3     1  UNL1       -0.0463
      4 C           0.2463    7.1110    7.3084 C.3     1  UNL1       -0.0525
      5 C           0.4648    7.5499    5.8637 C.3     1  UNL1       -0.0530
      6 C           0.3971    6.3466    4.9289 C.3     1  UNL1       -0.0525
      7 C           1.4183    5.2892    5.3403 C.3     1  UNL1       -0.0463
      8 C           1.3334    2.9349    8.8975 C.3     1  UNL1       -0.0200
      9 C           2.0017    1.7319    9.5638 C.3     1  UNL1       -0.0463
     10 C           1.4330    1.4922   10.9594 C.3     1  UNL1       -0.0525
     11 C          -0.0724    1.2621   10.8879 C.3     1  UNL1       -0.0530
     12 C          -0.7502    2.4467   10.2101 C.3     1  UNL1       -0.0525
     13 C          -0.1720    2.6829    8.8169 C.3     1  UNL1       -0.0463
     14 C           3.8479    3.8541    7.8108 C.3     1  UNL1       -0.0200
     15 C           4.5244    4.6841    6.7218 C.3     1  UNL1       -0.0463
     16 C           6.0201    4.8155    6.9876 C.3     1  UNL1       -0.0525
     17 C           6.2545    5.4645    8.3482 C.3     1  UNL1       -0.0530
     18 C           5.5418    4.6796    9.4447 C.3     1  UNL1       -0.0525
     19 C           4.0440    4.5545    9.1558 C.3     1  UNL1       -0.0463
     20 H           0.1344    4.4942    6.8128 H       1  UNL1        0.0349
     21 H           1.1088    5.7708    8.7514 H       1  UNL1        0.0271
     22 H           2.2734    6.5044    7.6388 H       1  UNL1        0.0271
     23 H           0.3179    7.9739    7.9755 H       1  UNL1        0.0265
     24 H          -0.7578    6.6922    7.4112 H       1  UNL1        0.0265
     25 H           1.4456    8.0248    5.7735 H       1  UNL1        0.0265
     26 H          -0.2894    8.2870    5.5796 H       1  UNL1        0.0265
     27 H           0.5854    6.6619    3.8996 H       1  UNL1        0.0265
     28 H          -0.6046    5.9119    4.9668 H       1  UNL1        0.0265
     29 H           2.4236    5.6972    5.2214 H       1  UNL1        0.0271
     30 H           1.3160    4.4223    4.6822 H       1  UNL1        0.0271
     31 H           1.4956    3.8229    9.5220 H       1  UNL1        0.0349
     32 H           3.0824    1.8747    9.6242 H       1  UNL1        0.0271
     33 H           1.8257    0.8507    8.9424 H       1  UNL1        0.0271
     34 H           1.6371    2.3604   11.5926 H       1  UNL1        0.0265
     35 H           1.9234    0.6276   11.4130 H       1  UNL1        0.0265
     36 H          -0.4796    1.1196   11.8917 H       1  UNL1        0.0265
     37 H          -0.2745    0.3564   10.3126 H       1  UNL1        0.0265
     38 H          -0.6058    3.3439   10.8192 H       1  UNL1        0.0265
     39 H          -1.8249    2.2670   10.1327 H       1  UNL1        0.0265
     40 H          -0.6871    3.5338    8.3688 H       1  UNL1        0.0271
     41 H          -0.3634    1.8121    8.1883 H       1  UNL1        0.0271
     42 H           4.3754    2.8894    7.8572 H       1  UNL1        0.0349
     43 H           4.0876    5.6840    6.6950 H       1  UNL1        0.0271
     44 H           4.3669    4.2064    5.7533 H       1  UNL1        0.0271
     45 H           6.4846    5.4171    6.2028 H       1  UNL1        0.0265
     46 H           6.4795    3.8262    6.9606 H       1  UNL1        0.0265
     47 H           7.3244    5.5146    8.5622 H       1  UNL1        0.0265
     48 H           5.8709    6.4879    8.3314 H       1  UNL1        0.0265
     49 H           5.6872    5.1751   10.4077 H       1  UNL1        0.0265
     50 H           5.9786    3.6803    9.5168 H       1  UNL1        0.0265
     51 H           3.6030    5.5512    9.1388 H       1  UNL1        0.0271
     52 H           3.5842    3.9950    9.9697 H       1  UNL1        0.0271
@<TRIPOS>BOND
     1    27     6    1
     2    30     7    1
     3     6    28    1
     4     6     7    1
     5     6     5    1
     6    29     7    1
     7     7     2    1
     8    26     5    1
     9    44    15    1
    10    25     5    1
    11     5     4    1
    12    45    16    1
    13    43    15    1
    14    15    16    1
    15    15    14    1
    16     2    20    1
    17     2     1    1
    18     2     3    1
    19    46    16    1
    20    16    17    1
    21     1    14    1
    22     1     8    1
    23     4    24    1
    24     4     3    1
    25     4    23    1
    26    22     3    1
    27     3    21    1
    28    14    42    1
    29    14    19    1
    30    41    13    1
    31    48    17    1
    32    17    47    1
    33    17    18    1
    34    40    13    1
    35    13     8    1
    36    13    12    1
    37     8    31    1
    38     8     9    1
    39    33     9    1
    40    51    19    1
    41    19    18    1
    42    19    52    1
    43    18    50    1
    44    18    49    1
    45     9    32    1
    46     9    10    1
    47    39    12    1
    48    12    38    1
    49    12    11    1
    50    37    11    1
    51    11    10    1
    52    11    36    1
    53    10    35    1
    54    10    34    1
