@<TRIPOS>MOLECULE
1
 52 54 0 0 0
SMALL
GASTEIGER

@<TRIPOS>ATOM
      1 P           1.4621   -0.5840    4.7723 P.3     1  UNL1       -0.0964
      2 C           0.0158   -0.5986    3.5686 C.3     1  UNL1       -0.0200
      3 C           0.1530    0.4863    2.5005 C.3     1  UNL1       -0.0463
      4 C          -1.1684    0.6589    1.7559 C.3     1  UNL1       -0.0525
      5 C          -1.6048   -0.6560    1.1176 C.3     1  UNL1       -0.0530
      6 C          -1.6956   -1.7548    2.1722 C.3     1  UNL1       -0.0525
      7 C          -0.3565   -1.9148    2.8918 C.3     1  UNL1       -0.0463
      8 C           0.7720   -1.7406    6.0788 C.3     1  UNL1       -0.0200
      9 C          -0.3169   -1.0289    6.8809 C.3     1  UNL1       -0.0463
     10 C          -0.9202   -1.9480    7.9378 C.3     1  UNL1       -0.0525
     11 C           0.1576   -2.4613    8.8858 C.3     1  UNL1       -0.0530
     12 C           1.2524   -3.1667    8.0951 C.3     1  UNL1       -0.0525
     13 C           1.8483   -2.2251    7.0513 C.3     1  UNL1       -0.0463
     14 C           2.8116   -1.6682    4.0256 C.3     1  UNL1       -0.0200
     15 C           2.5986   -3.1694    3.8228 C.3     1  UNL1       -0.0463
     16 C           3.9481   -3.8187    3.5101 C.3     1  UNL1       -0.0525
     17 C           4.5513   -3.2238    2.2409 C.3     1  UNL1       -0.0530
     18 C           4.6852   -1.7084    2.3636 C.3     1  UNL1       -0.0525
     19 C           3.3405   -1.0804    2.7191 C.3     1  UNL1       -0.0463
     20 H          -0.8239   -0.2975    4.2106 H       1  UNL1        0.0349
     21 H           0.4197    1.4336    2.9752 H       1  UNL1        0.0271
     22 H           0.9371    0.2225    1.7868 H       1  UNL1        0.0271
     23 H          -1.9327    0.9943    2.4606 H       1  UNL1        0.0265
     24 H          -1.0623    1.4293    0.9882 H       1  UNL1        0.0265
     25 H          -2.5715   -0.5299    0.6251 H       1  UNL1        0.0265
     26 H          -0.8780   -0.9472    0.3543 H       1  UNL1        0.0265
     27 H          -2.4711   -1.4987    2.8981 H       1  UNL1        0.0265
     28 H          -1.9770   -2.7005    1.7020 H       1  UNL1        0.0265
     29 H          -0.4291   -2.7290    3.6144 H       1  UNL1        0.0271
     30 H           0.4008   -2.1769    2.1510 H       1  UNL1        0.0271
     31 H           0.3311   -2.6050    5.5657 H       1  UNL1        0.0349
     32 H           0.1377   -0.1591    7.3637 H       1  UNL1        0.0271
     33 H          -1.1119   -0.6661    6.2264 H       1  UNL1        0.0271
     34 H          -1.6865   -1.4077    8.4990 H       1  UNL1        0.0265
     35 H          -1.4051   -2.7969    7.4473 H       1  UNL1        0.0265
     36 H          -0.2796   -3.1432    9.6190 H       1  UNL1        0.0265
     37 H           0.5971   -1.6212    9.4279 H       1  UNL1        0.0265
     38 H           2.0397   -3.5091    8.7705 H       1  UNL1        0.0265
     39 H           0.8332   -4.0463    7.5983 H       1  UNL1        0.0265
     40 H           2.2787   -1.3527    7.5493 H       1  UNL1        0.0271
     41 H           2.6548   -2.7380    6.5279 H       1  UNL1        0.0271
     42 H           3.6070   -1.5417    4.7759 H       1  UNL1        0.0349
     43 H           2.1677   -3.6432    4.7034 H       1  UNL1        0.0271
     44 H           1.9270   -3.3520    2.9852 H       1  UNL1        0.0271
     45 H           4.6316   -3.6601    4.3481 H       1  UNL1        0.0265
     46 H           3.8183   -4.8964    3.3859 H       1  UNL1        0.0265
     47 H           5.5287   -3.6710    2.0470 H       1  UNL1        0.0265
     48 H           3.9042   -3.4603    1.3924 H       1  UNL1        0.0265
     49 H           5.4111   -1.4610    3.1415 H       1  UNL1        0.0265
     50 H           5.0551   -1.2941    1.4224 H       1  UNL1        0.0265
     51 H           3.4612   -0.0011    2.8268 H       1  UNL1        0.0271
     52 H           2.6320   -1.2732    1.9106 H       1  UNL1        0.0271
@<TRIPOS>BOND
     1    26     5    1
     2    25     5    1
     3    24     4    1
     4     5     4    1
     5     5     6    1
     6    48    17    1
     7    50    18    1
     8    28     6    1
     9     4    23    1
    10     4     3    1
    11    22     3    1
    12    52    19    1
    13    47    17    1
    14    30     7    1
    15     6     7    1
    16     6    27    1
    17    17    18    1
    18    17    16    1
    19    18    19    1
    20    18    49    1
    21     3    21    1
    22     3     2    1
    23    19    51    1
    24    19    14    1
    25     7     2    1
    26     7    29    1
    27    44    15    1
    28    46    16    1
    29    16    15    1
    30    16    45    1
    31     2    20    1
    32     2     1    1
    33    15    14    1
    34    15    43    1
    35    14     1    1
    36    14    42    1
    37     1     8    1
    38    31     8    1
    39     8     9    1
    40     8    13    1
    41    33     9    1
    42    41    13    1
    43     9    32    1
    44     9    10    1
    45    13    40    1
    46    13    12    1
    47    35    10    1
    48    39    12    1
    49    10    34    1
    50    10    11    1
    51    12    38    1
    52    12    11    1
    53    11    37    1
    54    11    36    1
