@<TRIPOS>MOLECULE
1
 31 30 0 0 0
SMALL
GASTEIGER

@<TRIPOS>ATOM
      1 P           5.5221    3.1218    4.2731 P.3     1  UNL1       -0.0980
      2 C           5.8739    3.0134    6.1085 C.3     1  UNL1       -0.0257
      3 H           6.8845    2.6021    6.1948 H       1  UNL1        0.0344
      4 C           5.8528    4.3750    6.7977 C.3     1  UNL1       -0.0587
      5 H           4.8342    4.7276    6.9195 H       1  UNL1        0.0236
      6 H           6.4151    5.1215    6.2445 H       1  UNL1        0.0236
      7 H           6.2954    4.2883    7.7886 H       1  UNL1        0.0236
      8 C           4.8890    2.0744    6.8014 C.3     1  UNL1       -0.0587
      9 H           5.0044    2.1585    7.8801 H       1  UNL1        0.0236
     10 H           5.0581    1.0360    6.5306 H       1  UNL1        0.0236
     11 H           3.8632    2.3400    6.5456 H       1  UNL1        0.0236
     12 C           6.9922    4.0369    3.5451 C.3     1  UNL1       -0.0257
     13 H           7.1164    3.5690    2.5601 H       1  UNL1        0.0344
     14 C           8.3103    3.9144    4.3086 C.3     1  UNL1       -0.0587
     15 H           9.0952    4.3814    3.7157 H       1  UNL1        0.0236
     16 H           8.6009    2.8859    4.4879 H       1  UNL1        0.0236
     17 H           8.2692    4.4337    5.2615 H       1  UNL1        0.0236
     18 C           6.6767    5.5163    3.3275 C.3     1  UNL1       -0.0587
     19 H           6.6838    6.0609    4.2681 H       1  UNL1        0.0236
     20 H           5.7051    5.6487    2.8594 H       1  UNL1        0.0236
     21 H           7.4312    5.9622    2.6829 H       1  UNL1        0.0236
     22 C           5.7825    1.3234    3.7739 C.3     1  UNL1       -0.0257
     23 H           5.0544    0.7882    4.3939 H       1  UNL1        0.0344
     24 C           7.1666    0.7372    4.0419 C.3     1  UNL1       -0.0587
     25 H           7.1332   -0.3358    3.8605 H       1  UNL1        0.0236
     26 H           7.4892    0.8825    5.0688 H       1  UNL1        0.0236
     27 H           7.9060    1.1577    3.3661 H       1  UNL1        0.0236
     28 C           5.4059    1.0722    2.3146 C.3     1  UNL1       -0.0587
     29 H           6.0985    1.5700    1.6401 H       1  UNL1        0.0236
     30 H           4.3908    1.4070    2.1048 H       1  UNL1        0.0236
     31 H           5.4627    0.0051    2.1087 H       1  UNL1        0.0236
@<TRIPOS>BOND
     1    29    28    1
     2    30    28    1
     3    31    28    1
     4    28    22    1
     5    13    12    1
     6    21    18    1
     7    20    18    1
     8    18    12    1
     9    18    19    1
    10    27    24    1
    11    12     1    1
    12    12    14    1
    13    15    14    1
    14    22    24    1
    15    22     1    1
    16    22    23    1
    17    25    24    1
    18    24    26    1
    19     1     2    1
    20    14    16    1
    21    14    17    1
    22     2     3    1
    23     2     4    1
    24     2     8    1
    25     6     4    1
    26    10     8    1
    27    11     8    1
    28     4     5    1
    29     4     7    1
    30     8     9    1
