@<TRIPOS>MOLECULE
1
 34 36 0 0 0
SMALL
GASTEIGER

@<TRIPOS>ATOM
      1 P           1.9605   -0.7397   11.5541 P.3     1  UNL1       -0.0131
      2 C           3.5778   -1.4718   11.1727 C.ar    1  UNL1       -0.0147
      3 C           4.7181   -1.0701   11.8607 C.ar    1  UNL1       -0.0535
      4 H           4.6459   -0.2966   12.6107 H       1  UNL1        0.0624
      5 C           5.9358   -1.6630   11.5790 C.ar    1  UNL1       -0.0611
      6 H           6.8204   -1.3440   12.1089 H       1  UNL1        0.0618
      7 C           6.0222   -2.6581   10.6191 C.ar    1  UNL1       -0.0617
      8 H           6.9745   -3.1147   10.3968 H       1  UNL1        0.0618
      9 C           4.8843   -3.0685    9.9431 C.ar    1  UNL1       -0.0611
     10 H           4.9474   -3.8480    9.1989 H       1  UNL1        0.0618
     11 C           3.6627   -2.4804   10.2151 C.ar    1  UNL1       -0.0535
     12 H           2.7786   -2.8058    9.6848 H       1  UNL1        0.0624
     13 C           1.2321   -1.8693   12.7759 C.ar    1  UNL1       -0.0147
     14 C          -0.0881   -1.6578   13.1714 C.ar    1  UNL1       -0.0535
     15 H          -0.6557   -0.8489   12.7273 H       1  UNL1        0.0624
     16 C          -0.6699   -2.4775   14.1186 C.ar    1  UNL1       -0.0611
     17 H          -1.6948   -2.3149   14.4161 H       1  UNL1        0.0618
     18 C           0.0663   -3.5044   14.6901 C.ar    1  UNL1       -0.0617
     19 H          -0.3867   -4.1417   15.4337 H       1  UNL1        0.0618
     20 C           1.3822   -3.7080   14.3111 C.ar    1  UNL1       -0.0611
     21 H           1.9564   -4.5044   14.7596 H       1  UNL1        0.0618
     22 C           1.9689   -2.8940   13.3573 C.ar    1  UNL1       -0.0535
     23 H           2.9960   -3.0543   13.0643 H       1  UNL1        0.0624
     24 C           1.0254   -1.0046   10.0152 C.ar    1  UNL1       -0.0147
     25 C          -0.1119   -1.8004    9.9357 C.ar    1  UNL1       -0.0535
     26 H          -0.4801   -2.3166   10.8097 H       1  UNL1        0.0624
     27 C          -0.7628   -1.9534    8.7228 C.ar    1  UNL1       -0.0611
     28 H          -1.6406   -2.5790    8.6647 H       1  UNL1        0.0618
     29 C          -0.2875   -1.3188    7.5876 C.ar    1  UNL1       -0.0617
     30 H          -0.7965   -1.4464    6.6443 H       1  UNL1        0.0618
     31 C           0.8514   -0.5308    7.6620 C.ar    1  UNL1       -0.0611
     32 H           1.2350   -0.0497    6.7742 H       1  UNL1        0.0618
     33 C           1.5055   -0.3715    8.8684 C.ar    1  UNL1       -0.0535
     34 H           2.3998    0.2332    8.9305 H       1  UNL1        0.0624
@<TRIPOS>BOND
     1    30    29    1
     2    32    31    1
     3    29    31   ar
     4    29    27   ar
     5    31    33   ar
     6    28    27    1
     7    27    25   ar
     8    33    34    1
     9    33    24   ar
    10    10     9    1
    11    12    11    1
    12    25    24   ar
    13    25    26    1
    14     9    11   ar
    15     9     7   ar
    16    24     1    1
    17    11     2   ar
    18     8     7    1
    19     7     5   ar
    20     2     1    1
    21     2     3   ar
    22     1    13    1
    23     5     3   ar
    24     5     6    1
    25     3     4    1
    26    15    14    1
    27    13    14   ar
    28    13    22   ar
    29    23    22    1
    30    14    16   ar
    31    22    20   ar
    32    16    17    1
    33    16    18   ar
    34    20    18   ar
    35    20    21    1
    36    18    19    1
