@<TRIPOS>MOLECULE
1
 34 36 0 0 0
SMALL
GASTEIGER

@<TRIPOS>ATOM
      1 P           2.4372    3.8760   12.7330 P.3     1  UNL1       -0.0131
      2 C           4.1763    4.3991   12.6894 C.ar    1  UNL1       -0.0147
      3 C           5.2134    3.5079   12.9387 C.ar    1  UNL1       -0.0535
      4 H           4.9930    2.4699   13.1329 H       1  UNL1        0.0624
      5 C           6.5220    3.9579   12.9379 C.ar    1  UNL1       -0.0611
      6 H           7.3257    3.2621   13.1257 H       1  UNL1        0.0618
      7 C           6.8021    5.2921   12.6943 C.ar    1  UNL1       -0.0617
      8 H           7.8241    5.6390   12.6900 H       1  UNL1        0.0618
      9 C           5.7682    6.1839   12.4558 C.ar    1  UNL1       -0.0611
     10 H           5.9827    7.2255   12.2704 H       1  UNL1        0.0618
     11 C           4.4577    5.7439   12.4521 C.ar    1  UNL1       -0.0535
     12 H           3.6543    6.4438   12.2676 H       1  UNL1        0.0624
     13 C           1.8624    4.3949   14.3757 C.ar    1  UNL1       -0.0147
     14 C           0.5034    4.2903   14.6691 C.ar    1  UNL1       -0.0535
     15 H          -0.1813    3.9320   13.9097 H       1  UNL1        0.0624
     16 C           0.0326    4.6440   15.9185 C.ar    1  UNL1       -0.0611
     17 H          -1.0217    4.5699   16.1383 H       1  UNL1        0.0618
     18 C           0.9167    5.0876   16.8904 C.ar    1  UNL1       -0.0617
     19 H           0.5493    5.3593   17.8679 H       1  UNL1        0.0618
     20 C           2.2694    5.1756   16.6085 C.ar    1  UNL1       -0.0611
     21 H           2.9582    5.5155   17.3669 H       1  UNL1        0.0618
     22 C           2.7463    4.8298   15.3558 C.ar    1  UNL1       -0.0535
     23 H           3.8020    4.8969   15.1398 H       1  UNL1        0.0624
     24 C           1.6615    5.0182   11.5462 C.ar    1  UNL1       -0.0147
     25 C           0.6901    5.9498   11.8946 C.ar    1  UNL1       -0.0535
     26 H           0.3614    6.0403   12.9191 H       1  UNL1        0.0624
     27 C           0.1595    6.7869   10.9272 C.ar    1  UNL1       -0.0611
     28 H          -0.5884    7.5143   11.2044 H       1  UNL1        0.0618
     29 C           0.5912    6.7025    9.6141 C.ar    1  UNL1       -0.0617
     30 H           0.1781    7.3623    8.8663 H       1  UNL1        0.0618
     31 C           1.5653    5.7791    9.2649 C.ar    1  UNL1       -0.0611
     32 H           1.9167    5.7233    8.2451 H       1  UNL1        0.0618
     33 C           2.0980    4.9388   10.2236 C.ar    1  UNL1       -0.0535
     34 H           2.8636    4.2225    9.9593 H       1  UNL1        0.0624
@<TRIPOS>BOND
     1    32    31    1
     2    30    29    1
     3    31    29   ar
     4    31    33   ar
     5    29    27   ar
     6    34    33    1
     7    33    24   ar
     8    27    28    1
     9    27    25   ar
    10    24    25   ar
    11    24     1    1
    12    25    26    1
    13    12    11    1
    14    10     9    1
    15    11     9   ar
    16    11     2   ar
    17     9     7   ar
    18     2     1    1
    19     2     3   ar
    20     8     7    1
    21     7     5   ar
    22     1    13    1
    23     5     3   ar
    24     5     6    1
    25     3     4    1
    26    15    14    1
    27    13    14   ar
    28    13    22   ar
    29    14    16   ar
    30    23    22    1
    31    22    20   ar
    32    16    17    1
    33    16    18   ar
    34    20    18   ar
    35    20    21    1
    36    18    19    1
