@<TRIPOS>MOLECULE
1
 34 36 0 0 0
SMALL
GASTEIGER

@<TRIPOS>ATOM
      1 P          -1.9436   -1.5739    4.1992 P.3     1  UNL1       -0.0131
      2 C          -2.5209   -3.2480    4.5971 C.ar    1  UNL1       -0.0147
      3 C          -1.6615   -4.3393    4.5238 C.ar    1  UNL1       -0.0535
      4 H          -0.6260   -4.1881    4.2598 H       1  UNL1        0.0624
      5 C          -2.1403   -5.6100    4.7881 C.ar    1  UNL1       -0.0611
      6 H          -1.4703   -6.4545    4.7366 H       1  UNL1        0.0618
      7 C          -3.4719   -5.7995    5.1201 C.ar    1  UNL1       -0.0617
      8 H          -3.8414   -6.7917    5.3296 H       1  UNL1        0.0618
      9 C          -4.3311   -4.7142    5.1830 C.ar    1  UNL1       -0.0611
     10 H          -5.3702   -4.8593    5.4367 H       1  UNL1        0.0618
     11 C          -3.8624   -3.4393    4.9235 C.ar    1  UNL1       -0.0535
     12 H          -4.5373   -2.5962    4.9732 H       1  UNL1        0.0624
     13 C          -2.3326   -1.3691    2.4383 C.ar    1  UNL1       -0.0147
     14 C          -2.7376   -2.4426    1.6539 C.ar    1  UNL1       -0.0535
     15 H          -2.8684   -3.4177    2.0991 H       1  UNL1        0.0624
     16 C          -2.9719   -2.2576    0.3022 C.ar    1  UNL1       -0.0611
     17 H          -3.2907   -3.0919   -0.3042 H       1  UNL1        0.0618
     18 C          -2.7998   -1.0097   -0.2727 C.ar    1  UNL1       -0.0617
     19 H          -2.9814   -0.8710   -1.3272 H       1  UNL1        0.0618
     20 C          -2.3882    0.0619    0.5051 C.ar    1  UNL1       -0.0611
     21 H          -2.2500    1.0343    0.0574 H       1  UNL1        0.0618
     22 C          -2.1481   -0.1172    1.8535 C.ar    1  UNL1       -0.0535
     23 H          -1.8172    0.7145    2.4632 H       1  UNL1        0.0624
     24 C          -3.0916   -0.5108    5.1256 C.ar    1  UNL1       -0.0147
     25 C          -3.9472    0.4088    4.5303 C.ar    1  UNL1       -0.0535
     26 H          -3.9892    0.4994    3.4550 H       1  UNL1        0.0624
     27 C          -4.7679    1.1949    5.3219 C.ar    1  UNL1       -0.0611
     28 H          -5.4375    1.9024    4.8568 H       1  UNL1        0.0618
     29 C          -4.7374    1.0738    6.7010 C.ar    1  UNL1       -0.0617
     30 H          -5.3785    1.6913    7.3114 H       1  UNL1        0.0618
     31 C          -3.8931    0.1492    7.2973 C.ar    1  UNL1       -0.0611
     32 H          -3.8803    0.0421    8.3721 H       1  UNL1        0.0618
     33 C          -3.0749   -0.6418    6.5148 C.ar    1  UNL1       -0.0535
     34 H          -2.4248   -1.3780    6.9678 H       1  UNL1        0.0624
@<TRIPOS>BOND
     1    19    18    1
     2    17    16    1
     3    18    16   ar
     4    18    20   ar
     5    21    20    1
     6    16    14   ar
     7    20    22   ar
     8    14    15    1
     9    14    13   ar
    10    22    13   ar
    11    22    23    1
    12    13     1    1
    13    26    25    1
    14     1     2    1
    15     1    24    1
    16     4     3    1
    17     3     2   ar
    18     3     5   ar
    19    25    24   ar
    20    25    27   ar
    21     2    11   ar
    22     6     5    1
    23     5     7   ar
    24    28    27    1
    25    11    12    1
    26    11     9   ar
    27     7     9   ar
    28     7     8    1
    29    24    33   ar
    30     9    10    1
    31    27    29   ar
    32    33    34    1
    33    33    31   ar
    34    29    31   ar
    35    29    30    1
    36    31    32    1
