@<TRIPOS>MOLECULE
1
 34 36 0 0 0
SMALL
GASTEIGER

@<TRIPOS>ATOM
      1 P           2.5732   -0.9455    5.6488 P.3     1  UNL1       -0.0131
      2 C           2.6149   -0.1081    7.2689 C.ar    1  UNL1       -0.0147
      3 C           2.3013   -0.8577    8.4022 C.ar    1  UNL1       -0.0535
      4 H           2.0663   -1.9072    8.3026 H       1  UNL1        0.0624
      5 C           2.2987   -0.2635    9.6503 C.ar    1  UNL1       -0.0611
      6 H           2.0681   -0.8548   10.5235 H       1  UNL1        0.0618
      7 C           2.6040    1.0818    9.7840 C.ar    1  UNL1       -0.0617
      8 H           2.6090    1.5418   10.7605 H       1  UNL1        0.0618
      9 C           2.9139    1.8302    8.6606 C.ar    1  UNL1       -0.0611
     10 H           3.1651    2.8756    8.7599 H       1  UNL1        0.0618
     11 C           2.9179    1.2428    7.4069 C.ar    1  UNL1       -0.0535
     12 H           3.1835    1.8336    6.5429 H       1  UNL1        0.0624
     13 C           3.4323   -2.5012    6.0141 C.ar    1  UNL1       -0.0147
     14 C           3.0162   -3.7168    5.4878 C.ar    1  UNL1       -0.0535
     15 H           2.1502   -3.7554    4.8449 H       1  UNL1        0.0624
     16 C           3.7158   -4.8725    5.7925 C.ar    1  UNL1       -0.0611
     17 H           3.3866   -5.8176    5.3880 H       1  UNL1        0.0618
     18 C           4.8286   -4.8196    6.6142 C.ar    1  UNL1       -0.0617
     19 H           5.3694   -5.7226    6.8528 H       1  UNL1        0.0618
     20 C           5.2504   -3.6047    7.1338 C.ar    1  UNL1       -0.0611
     21 H           6.1199   -3.5602    7.7719 H       1  UNL1        0.0618
     22 C           4.5574   -2.4467    6.8390 C.ar    1  UNL1       -0.0535
     23 H           4.8851   -1.4993    7.2464 H       1  UNL1        0.0624
     24 C           3.7329   -0.0050    4.6062 C.ar    1  UNL1       -0.0147
     25 C           4.9676   -0.5113    4.2190 C.ar    1  UNL1       -0.0535
     26 H           5.2787   -1.4924    4.5453 H       1  UNL1        0.0624
     27 C           5.7988    0.2422    3.4077 C.ar    1  UNL1       -0.0611
     28 H           6.7566   -0.1563    3.1101 H       1  UNL1        0.0618
     29 C           5.4062    1.4976    2.9761 C.ar    1  UNL1       -0.0617
     30 H           6.0582    2.0811    2.3448 H       1  UNL1        0.0618
     31 C           4.1679    2.0004    3.3448 C.ar    1  UNL1       -0.0611
     32 H           3.8533    2.9736    2.9994 H       1  UNL1        0.0618
     33 C           3.3314    1.2491    4.1474 C.ar    1  UNL1       -0.0535
     34 H           2.3532    1.6310    4.4173 H       1  UNL1        0.0624
@<TRIPOS>BOND
     1    30    29    1
     2    29    31   ar
     3    29    27   ar
     4    32    31    1
     5    28    27    1
     6    31    33   ar
     7    27    25   ar
     8    33    34    1
     9    33    24   ar
    10    25    26    1
    11    25    24   ar
    12    24     1    1
    13    15    14    1
    14    17    16    1
    15    14    16   ar
    16    14    13   ar
    17     1    13    1
    18     1     2    1
    19    16    18   ar
    20    13    22   ar
    21    12    11    1
    22    18    19    1
    23    18    20   ar
    24    22    20   ar
    25    22    23    1
    26    20    21    1
    27     2    11   ar
    28     2     3   ar
    29    11     9   ar
    30     4     3    1
    31     3     5   ar
    32     9    10    1
    33     9     7   ar
    34     5     7   ar
    35     5     6    1
    36     7     8    1
