@<TRIPOS>MOLECULE
1
 24 25 0 0 0
SMALL
GASTEIGER

@<TRIPOS>ATOM
      1 P           2.5032   -0.5267    3.6228 P.3     1  UNL1       -0.0588
      2 C           3.8118   -0.7053    2.3721 C.ar    1  UNL1       -0.0220
      3 C           4.9217   -1.5150    2.5796 C.ar    1  UNL1       -0.0541
      4 C           5.9032   -1.6092    1.6090 C.ar    1  UNL1       -0.0612
      5 C           5.7807   -0.8985    0.4267 C.ar    1  UNL1       -0.0617
      6 C           4.6753   -0.0892    0.2145 C.ar    1  UNL1       -0.0612
      7 C           3.6962    0.0097    1.1840 C.ar    1  UNL1       -0.0541
      8 C           1.1264   -1.1067    2.5660 C.ar    1  UNL1       -0.0220
      9 C           0.2081   -0.1752    2.1000 C.ar    1  UNL1       -0.0541
     10 C          -0.8229   -0.5695    1.2665 C.ar    1  UNL1       -0.0612
     11 C          -0.9421   -1.8998    0.8979 C.ar    1  UNL1       -0.0617
     12 C          -0.0269   -2.8331    1.3584 C.ar    1  UNL1       -0.0612
     13 C           1.0075   -2.4388    2.1869 C.ar    1  UNL1       -0.0541
     14 H           2.7549   -1.7692    4.2368 H       1  UNL1        0.0671
     15 H           5.0180   -2.0645    3.5064 H       1  UNL1        0.0624
     16 H           6.7660   -2.2383    1.7744 H       1  UNL1        0.0618
     17 H           6.5478   -0.9742   -0.3299 H       1  UNL1        0.0618
     18 H           4.5820    0.4656   -0.7076 H       1  UNL1        0.0618
     19 H           2.8330    0.6436    1.0341 H       1  UNL1        0.0624
     20 H           0.3164    0.8541    2.4141 H       1  UNL1        0.0624
     21 H          -1.5364    0.1572    0.9052 H       1  UNL1        0.0618
     22 H          -1.7494   -2.2111    0.2513 H       1  UNL1        0.0618
     23 H          -0.1217   -3.8699    1.0695 H       1  UNL1        0.0618
     24 H           1.7279   -3.1626    2.5461 H       1  UNL1        0.0624
@<TRIPOS>BOND
     1    18     6    1
     2    17     5    1
     3     6     5   ar
     4     6     7   ar
     5    22    11    1
     6     5     4   ar
     7    11    10   ar
     8    11    12   ar
     9    21    10    1
    10    19     7    1
    11    23    12    1
    12     7     2   ar
    13    10     9   ar
    14    12    13   ar
    15     4    16    1
    16     4     3   ar
    17     9    20    1
    18     9     8   ar
    19    13    24    1
    20    13     8   ar
    21     2     3   ar
    22     2     1    1
    23     8     1    1
    24     3    15    1
    25     1    14    1
