@<TRIPOS>MOLECULE
1
 66 67 0 0 0
SMALL
GASTEIGER

@<TRIPOS>ATOM
      1 P           9.5167    3.8238   31.7867 P.3     1  UNL1        0.0000
      2 H           9.0663    5.0817   31.3461 H       1  UNL1        0.0000
      3 SI         11.6611    6.0053   31.7489 Si      1  UNL1        0.0000
      4 SI         12.4289    2.7765   31.8132 Si      1  UNL1        0.0000
      5 O           9.7211    3.1428   30.3265 O.3     1  UNL1        0.0000
      6 C          11.2216    4.2097   32.2677 C.3     1  UNL1        0.0000
      7 H          11.1787    4.2162   33.3617 H       1  UNL1        0.0000
      8 C          11.3859    6.2325   29.8729 C.3     1  UNL1        0.0000
      9 H          10.9750    7.2132   29.6519 H       1  UNL1        0.0000
     10 H          10.6962    5.4888   29.4831 H       1  UNL1        0.0000
     11 H          12.3154    6.1402   29.3206 H       1  UNL1        0.0000
     12 C          13.4544    6.4273   32.2317 C.3     1  UNL1        0.0000
     13 H          14.1783    5.8094   31.7136 H       1  UNL1        0.0000
     14 H          13.6163    6.3040   33.2973 H       1  UNL1        0.0000
     15 H          13.6713    7.4616   31.9877 H       1  UNL1        0.0000
     16 C          10.5206    7.1725   32.7438 C.3     1  UNL1        0.0000
     17 H          10.6923    8.2118   32.4797 H       1  UNL1        0.0000
     18 H          10.7008    7.0757   33.8109 H       1  UNL1        0.0000
     19 H           9.4679    6.9618   32.5757 H       1  UNL1        0.0000
     20 C          13.3782    3.1928   30.2102 C.3     1  UNL1        0.0000
     21 H          13.8375    2.3007   29.7959 H       1  UNL1        0.0000
     22 H          14.1763    3.9011   30.4050 H       1  UNL1        0.0000
     23 H          12.7365    3.6211   29.4496 H       1  UNL1        0.0000
     24 C          11.5903    1.0661   31.6528 C.3     1  UNL1        0.0000
     25 H          10.5121    1.1308   31.7785 H       1  UNL1        0.0000
     26 H          11.9666    0.3753   32.4020 H       1  UNL1        0.0000
     27 H          11.7802    0.6229   30.6799 H       1  UNL1        0.0000
     28 C          13.6771    2.6809   33.2540 C.3     1  UNL1        0.0000
     29 H          14.4589    1.9620   33.0329 H       1  UNL1        0.0000
     30 H          13.2012    2.3701   34.1789 H       1  UNL1        0.0000
     31 H          14.1545    3.6381   33.4350 H       1  UNL1        0.0000
     32 C           9.3162    1.9603   28.1196 C.3     1  UNL1        0.0000
     33 H           8.7015    2.1667   27.2360 H       1  UNL1        0.0000
     34 C           9.1289    0.4676   28.4564 C.3     1  UNL1        0.0000
     35 H           9.7370    0.2188   29.3277 H       1  UNL1        0.0000
     36 H           8.0868    0.2739   28.7124 H       1  UNL1        0.0000
     37 C           9.5398   -0.4138   27.2808 C.3     1  UNL1        0.0000
     38 H           8.8944   -0.2008   26.4255 H       1  UNL1        0.0000
     39 H           9.4060   -1.4646   27.5469 H       1  UNL1        0.0000
     40 C          10.9921   -0.1556   26.8942 C.3     1  UNL1        0.0000
     41 H          11.6429   -0.4268   27.7290 H       1  UNL1        0.0000
     42 H          11.2679   -0.7779   26.0400 H       1  UNL1        0.0000
     43 C          11.1923    1.3177   26.5553 C.3     1  UNL1        0.0000
     44 H          12.2388    1.5035   26.3027 H       1  UNL1        0.0000
     45 H          10.5875    1.5732   25.6818 H       1  UNL1        0.0000
     46 C          10.7817    2.1949   27.7340 C.3     1  UNL1        0.0000
     47 H          10.9292    3.2472   27.4789 H       1  UNL1        0.0000
     48 H          11.4114    1.9640   28.5927 H       1  UNL1        0.0000
     49 C           7.3457    3.4421   29.4628 C.3     1  UNL1        0.0000
     50 H           7.1384    3.6256   30.5300 H       1  UNL1        0.0000
     51 C           7.3041    4.8133   28.7611 C.3     1  UNL1        0.0000
     52 H           8.1041    5.4530   29.1452 H       1  UNL1        0.0000
     53 H           7.4764    4.6727   27.6915 H       1  UNL1        0.0000
     54 C           5.9549    5.4923   28.9755 C.3     1  UNL1        0.0000
     55 H           5.8039    5.6701   30.0429 H       1  UNL1        0.0000
     56 H           5.9439    6.4605   28.4693 H       1  UNL1        0.0000
     57 C           4.8269    4.6133   28.4459 C.3     1  UNL1        0.0000
     58 H           3.8641    5.0974   28.6213 H       1  UNL1        0.0000
     59 H           4.9455    4.4831   27.3675 H       1  UNL1        0.0000
     60 C           4.8564    3.2490   29.1270 C.3     1  UNL1        0.0000
     61 H           4.0608    2.6164   28.7276 H       1  UNL1        0.0000
     62 H           4.6756    3.3751   30.1969 H       1  UNL1        0.0000
     63 C           6.2085    2.5720   28.9186 C.3     1  UNL1        0.0000
     64 H           6.2117    1.6053   29.4253 H       1  UNL1        0.0000
     65 H           6.3638    2.3927   27.8529 H       1  UNL1        0.0000
     66 B           8.8239    2.8480   29.3528 B       1  UNL1        0.0000
@<TRIPOS>BOND
     1    45    43    1
     2    42    40    1
     3    44    43    1
     4    38    37    1
     5    43    40    1
     6    43    46    1
     7    40    37    1
     8    40    41    1
     9    33    32    1
    10    37    39    1
    11    37    34    1
    12    59    57    1
    13    47    46    1
    14    53    51    1
    15    46    32    1
    16    46    48    1
    17    65    63    1
    18    32    34    1
    19    32    66    1
    20    57    58    1
    21    57    54    1
    22    57    60    1
    23    34    36    1
    24    34    35    1
    25    56    54    1
    26    61    60    1
    27    51    54    1
    28    51    52    1
    29    51    49    1
    30    63    60    1
    31    63    64    1
    32    63    49    1
    33    54    55    1
    34    60    62    1
    35    11     8    1
    36    66    49    1
    37    66     5    1
    38    23    20    1
    39    49    50    1
    40    10     8    1
    41     9     8    1
    42    21    20    1
    43     8     3    1
    44    20    22    1
    45    20     4    1
    46     5     1    1
    47    27    24    1
    48     2     1    1
    49    24    25    1
    50    24     4    1
    51    24    26    1
    52    13    12    1
    53     3    12    1
    54     3     6    1
    55     3    16    1
    56     1     6    1
    57     4     6    1
    58     4    28    1
    59    15    12    1
    60    12    14    1
    61     6     7    1
    62    17    16    1
    63    19    16    1
    64    16    18    1
    65    29    28    1
    66    28    31    1
    67    28    30    1
