@<TRIPOS>MOLECULE
1
 44 45 0 0 0
SMALL
GASTEIGER

@<TRIPOS>ATOM
      1 P           5.0392    7.8272    8.9276 P.3     1  UNL1        0.0000
      2 H           5.9175    8.2047    7.8892 H       1  UNL1        0.0000
      3 SI          4.1083    9.4322   11.3287 Si      1  UNL1        0.0000
      4 SI          5.2233   10.8555    8.5498 Si      1  UNL1        0.0000
      5 O           6.2188    7.7240   10.0686 O.3     1  UNL1        0.0000
      6 O           7.6765    6.4451   11.5034 O.2     1  UNL1        0.0000
      7 O           6.7395    5.4065    9.6937 O.2     1  UNL1        0.0000
      8 C           8.0714    5.1316   11.4849 C.ar    1  UNL1        0.0000
      9 C           7.4957    4.4958   10.3793 C.ar    1  UNL1        0.0000
     10 C           7.7131    3.1612   10.1147 C.ar    1  UNL1        0.0000
     11 H           7.2608    2.6805    9.2631 H       1  UNL1        0.0000
     12 C           8.5360    2.4767   10.9989 C.ar    1  UNL1        0.0000
     13 H           8.7308    1.4292   10.8287 H       1  UNL1        0.0000
     14 C           9.1096    3.1062   12.0940 C.ar    1  UNL1        0.0000
     15 H           9.7423    2.5382   12.7584 H       1  UNL1        0.0000
     16 C           8.8887    4.4510   12.3613 C.ar    1  UNL1        0.0000
     17 H           9.3287    4.9433   13.2126 H       1  UNL1        0.0000
     18 C           4.3080    9.4032    9.4102 C.3     1  UNL1        0.0000
     19 H           3.2989    9.3720    8.9899 H       1  UNL1        0.0000
     20 C           3.7817    7.7154   12.0924 C.3     1  UNL1        0.0000
     21 H           3.0773    7.1345   11.5026 H       1  UNL1        0.0000
     22 H           3.3681    7.8093   13.0927 H       1  UNL1        0.0000
     23 H           4.7000    7.1417   12.1712 H       1  UNL1        0.0000
     24 C           5.6511   10.1798   12.1622 C.3     1  UNL1        0.0000
     25 H           6.5371    9.6000   11.9256 H       1  UNL1        0.0000
     26 H           5.5337   10.1790   13.2414 H       1  UNL1        0.0000
     27 H           5.8270   11.2048   11.8537 H       1  UNL1        0.0000
     28 C           2.5694   10.5087   11.6726 C.3     1  UNL1        0.0000
     29 H           2.6585   11.4976   11.2381 H       1  UNL1        0.0000
     30 H           2.4254   10.6322   12.7402 H       1  UNL1        0.0000
     31 H           1.6683   10.0540   11.2732 H       1  UNL1        0.0000
     32 C           7.1005   10.7620    8.8690 C.3     1  UNL1        0.0000
     33 H           7.3845   11.3223    9.7535 H       1  UNL1        0.0000
     34 H           7.6633   11.1662    8.0329 H       1  UNL1        0.0000
     35 H           7.4182    9.7346    9.0187 H       1  UNL1        0.0000
     36 C           4.5309   12.5259    9.1527 C.3     1  UNL1        0.0000
     37 H           3.4643   12.6031    8.9708 H       1  UNL1        0.0000
     38 H           5.0105   13.3411    8.6218 H       1  UNL1        0.0000
     39 H           4.6980   12.6811   10.2127 H       1  UNL1        0.0000
     40 C           4.8416   10.7011    6.6831 C.3     1  UNL1        0.0000
     41 H           5.1194    9.7259    6.2921 H       1  UNL1        0.0000
     42 H           5.3739   11.4499    6.1046 H       1  UNL1        0.0000
     43 H           3.7812   10.8352    6.4882 H       1  UNL1        0.0000
     44 B           6.8562    6.5884   10.4072 B       1  UNL1        0.0000
@<TRIPOS>BOND
     1    42    40    1
     2    41    40    1
     3    43    40    1
     4    40     4    1
     5     2     1    1
     6    34    32    1
     7     4    32    1
     8     4    36    1
     9     4    18    1
    10    38    36    1
    11    32    35    1
    12    32    33    1
    13     1    18    1
    14     1     5    1
    15    37    36    1
    16    19    18    1
    17    36    39    1
    18    11    10    1
    19    18     3    1
    20     7     9   ar
    21     7    44   ar
    22     5    44    1
    23    10     9   ar
    24    10    12   ar
    25     9     8   ar
    26    44     6   ar
    27    13    12    1
    28    12    14   ar
    29    29    28    1
    30    31    28    1
    31     3    28    1
    32     3    20    1
    33     3    24    1
    34     8     6   ar
    35     8    16   ar
    36    21    20    1
    37    28    30    1
    38    27    24    1
    39    25    24    1
    40    20    23    1
    41    20    22    1
    42    14    16   ar
    43    14    15    1
    44    24    26    1
    45    16    17    1
