@<TRIPOS>MOLECULE
1
 34 36 0 0 0
SMALL
GASTEIGER

@<TRIPOS>ATOM
      1 P           0.1848    1.0283    5.5994 P.3     1  UNL1       -0.0131
      2 C           0.8388    0.1425    7.0579 C.ar    1  UNL1       -0.0147
      3 C           0.9428    0.7503    8.3043 C.ar    1  UNL1       -0.0535
      4 C           1.5332    0.0772    9.3587 C.ar    1  UNL1       -0.0611
      5 C           2.0099   -1.2109    9.1858 C.ar    1  UNL1       -0.0617
      6 C           1.9065   -1.8241    7.9480 C.ar    1  UNL1       -0.0611
      7 C           1.3401   -1.1457    6.8866 C.ar    1  UNL1       -0.0535
      8 C          -1.1716    2.0288    6.3201 C.ar    1  UNL1       -0.0147
      9 C          -0.8142    3.2140    6.9626 C.ar    1  UNL1       -0.0535
     10 C          -1.7816    4.0362    7.5086 C.ar    1  UNL1       -0.0611
     11 C          -3.1214    3.6978    7.4032 C.ar    1  UNL1       -0.0617
     12 C          -3.4849    2.5357    6.7455 C.ar    1  UNL1       -0.0611
     13 C          -2.5186    1.7033    6.2060 C.ar    1  UNL1       -0.0535
     14 C          -0.7703   -0.3133    4.8000 C.ar    1  UNL1       -0.0147
     15 C          -1.4544   -1.2689    5.5502 C.ar    1  UNL1       -0.0535
     16 C          -2.1944   -2.2486    4.9158 C.ar    1  UNL1       -0.0611
     17 C          -2.2690   -2.2824    3.5312 C.ar    1  UNL1       -0.0617
     18 C          -1.5985   -1.3323    2.7810 C.ar    1  UNL1       -0.0611
     19 C          -0.8511   -0.3550    3.4149 C.ar    1  UNL1       -0.0535
     20 H           0.5608    1.7477    8.4548 H       1  UNL1        0.0624
     21 H           1.6213    0.5647   10.3182 H       1  UNL1        0.0618
     22 H           2.4624   -1.7374   10.0132 H       1  UNL1        0.0618
     23 H           2.2785   -2.8284    7.8063 H       1  UNL1        0.0618
     24 H           1.2769   -1.6197    5.9161 H       1  UNL1        0.0624
     25 H           0.2322    3.4917    7.0130 H       1  UNL1        0.0624
     26 H          -1.4906    4.9480    8.0101 H       1  UNL1        0.0618
     27 H          -3.8795    4.3425    7.8232 H       1  UNL1        0.0618
     28 H          -4.5286    2.2733    6.6478 H       1  UNL1        0.0618
     29 H          -2.8236    0.8044    5.6902 H       1  UNL1        0.0624
     30 H          -1.4019   -1.2389    6.6300 H       1  UNL1        0.0624
     31 H          -2.7195   -2.9886    5.5025 H       1  UNL1        0.0618
     32 H          -2.8501   -3.0498    3.0408 H       1  UNL1        0.0618
     33 H          -1.6535   -1.3533    1.7020 H       1  UNL1        0.0618
     34 H          -0.3110    0.3792    2.8334 H       1  UNL1        0.0624
@<TRIPOS>BOND
     1    33    18    1
     2    18    19   ar
     3    18    17   ar
     4    34    19    1
     5    32    17    1
     6    19    14   ar
     7    17    16   ar
     8    14    15   ar
     9    14     1    1
    10    16    31    1
    11    16    15   ar
    12    15    30    1
    13     1     8    1
    14     1     2    1
    15    29    13    1
    16    24     7    1
    17    13     8   ar
    18    13    12   ar
    19     8     9   ar
    20    28    12    1
    21    12    11   ar
    22     7     2   ar
    23     7     6   ar
    24     9    25    1
    25     9    10   ar
    26     2     3   ar
    27    11    10   ar
    28    11    27    1
    29    10    26    1
    30    23     6    1
    31     6     5   ar
    32     3    20    1
    33     3     4   ar
    34     5     4   ar
    35     5    22    1
    36     4    21    1
