@<TRIPOS>MOLECULE
1
 34 36 0 0 0
SMALL
GASTEIGER

@<TRIPOS>ATOM
      1 P           3.2133    0.8541    3.9508 P.3     1  UNL1       -0.0131
      2 C           3.9149   -0.4037    5.0813 C.ar    1  UNL1       -0.0147
      3 C           4.1778    0.0227    6.3800 C.ar    1  UNL1       -0.0535
      4 C           4.8254   -0.8110    7.2714 C.ar    1  UNL1       -0.0611
      5 C           5.2137   -2.0803    6.8759 C.ar    1  UNL1       -0.0617
      6 C           4.9592   -2.5072    5.5833 C.ar    1  UNL1       -0.0611
      7 C           4.3228   -1.6718    4.6822 C.ar    1  UNL1       -0.0535
      8 C           4.8327    1.6048    3.5411 C.ar    1  UNL1       -0.0147
      9 C           5.1167    2.8809    4.0105 C.ar    1  UNL1       -0.0535
     10 C           6.3546    3.4517    3.7716 C.ar    1  UNL1       -0.0611
     11 C           7.3157    2.7489    3.0651 C.ar    1  UNL1       -0.0617
     12 C           7.0431    1.4678    2.6103 C.ar    1  UNL1       -0.0611
     13 C           5.8108    0.8914    2.8539 C.ar    1  UNL1       -0.0535
     14 C           2.8207   -0.1058    2.4524 C.ar    1  UNL1       -0.0147
     15 C           3.1632    0.3474    1.1817 C.ar    1  UNL1       -0.0535
     16 C           2.7288   -0.3333    0.0586 C.ar    1  UNL1       -0.0611
     17 C           1.9414   -1.4659    0.1906 C.ar    1  UNL1       -0.0617
     18 C           1.5795   -1.9123    1.4519 C.ar    1  UNL1       -0.0611
     19 C           2.0073   -1.2303    2.5750 C.ar    1  UNL1       -0.0535
     20 H           3.8579    1.0111    6.6805 H       1  UNL1        0.0624
     21 H           5.0244   -0.4671    8.2753 H       1  UNL1        0.0618
     22 H           5.7176   -2.7366    7.5705 H       1  UNL1        0.0618
     23 H           5.2662   -3.4950    5.2697 H       1  UNL1        0.0618
     24 H           4.1451   -2.0155    3.6730 H       1  UNL1        0.0624
     25 H           4.3599    3.4145    4.5742 H       1  UNL1        0.0624
     26 H           6.5702    4.4442    4.1398 H       1  UNL1        0.0618
     27 H           8.2814    3.1940    2.8742 H       1  UNL1        0.0618
     28 H           7.7974    0.9147    2.0691 H       1  UNL1        0.0618
     29 H           5.6034   -0.1128    2.5099 H       1  UNL1        0.0624
     30 H           3.7755    1.2331    1.0750 H       1  UNL1        0.0624
     31 H           3.0031    0.0224   -0.9246 H       1  UNL1        0.0618
     32 H           1.6053   -1.9954   -0.6890 H       1  UNL1        0.0618
     33 H           0.9565   -2.7885    1.5603 H       1  UNL1        0.0618
     34 H           1.7118   -1.5599    3.5626 H       1  UNL1        0.0624
@<TRIPOS>BOND
     1    31    16    1
     2    32    17    1
     3    16    17   ar
     4    16    15   ar
     5    17    18   ar
     6    30    15    1
     7    15    14   ar
     8    18    33    1
     9    18    19   ar
    10    28    12    1
    11    14    19   ar
    12    14     1    1
    13    29    13    1
    14    19    34    1
    15    12    13   ar
    16    12    11   ar
    17    13     8   ar
    18    27    11    1
    19    11    10   ar
    20     8     1    1
    21     8     9   ar
    22    24     7    1
    23    10     9   ar
    24    10    26    1
    25     1     2    1
    26     9    25    1
    27     7     2   ar
    28     7     6   ar
    29     2     3   ar
    30    23     6    1
    31     6     5   ar
    32     3    20    1
    33     3     4   ar
    34     5     4   ar
    35     5    22    1
    36     4    21    1
