@<TRIPOS>MOLECULE
1
 34 36 0 0 0
SMALL
GASTEIGER

@<TRIPOS>ATOM
      1 P           5.1702   -0.0465   -1.8363 P.3     1  UNL1       -0.0131
      2 C           5.9591    0.0350   -3.4794 C.ar    1  UNL1       -0.0147
      3 C           5.3164    0.3881   -4.6583 C.ar    1  UNL1       -0.0535
      4 H           4.2752    0.6796   -4.6505 H       1  UNL1        0.0624
      5 C           6.0126    0.3760   -5.8554 C.ar    1  UNL1       -0.0611
      6 H           5.5105    0.6631   -6.7687 H       1  UNL1        0.0618
      7 C           7.3426   -0.0047   -5.8871 C.ar    1  UNL1       -0.0617
      8 H           7.8806   -0.0118   -6.8241 H       1  UNL1        0.0618
      9 C           7.9821   -0.3759   -4.7142 C.ar    1  UNL1       -0.0611
     10 H           9.0189   -0.6786   -4.7358 H       1  UNL1        0.0618
     11 C           7.2953   -0.3518   -3.5159 C.ar    1  UNL1       -0.0535
     12 H           7.7890   -0.6132   -2.5889 H       1  UNL1        0.0624
     13 C           3.4957    0.6141   -2.1078 C.ar    1  UNL1       -0.0147
     14 C           3.3601    1.8975   -2.6355 C.ar    1  UNL1       -0.0535
     15 H           4.2474    2.4294   -2.9481 H       1  UNL1        0.0624
     16 C           2.1125    2.4846   -2.7227 C.ar    1  UNL1       -0.0611
     17 H           2.0119    3.4786   -3.1351 H       1  UNL1        0.0618
     18 C           0.9935    1.8088   -2.2603 C.ar    1  UNL1       -0.0617
     19 H           0.0194    2.2732   -2.3199 H       1  UNL1        0.0618
     20 C           1.1268    0.5455   -1.7097 C.ar    1  UNL1       -0.0611
     21 H           0.2579    0.0230   -1.3346 H       1  UNL1        0.0618
     22 C           2.3728   -0.0519   -1.6279 C.ar    1  UNL1       -0.0535
     23 H           2.4774   -1.0305   -1.1795 H       1  UNL1        0.0624
     24 C           4.8178   -1.8462   -1.8352 C.ar    1  UNL1       -0.0147
     25 C           4.2390   -2.4272   -2.9613 C.ar    1  UNL1       -0.0535
     26 H           4.0072   -1.8138   -3.8215 H       1  UNL1        0.0624
     27 C           3.9608   -3.7801   -2.9808 C.ar    1  UNL1       -0.0611
     28 H           3.5119   -4.2241   -3.8578 H       1  UNL1        0.0618
     29 C           4.2577   -4.5675   -1.8789 C.ar    1  UNL1       -0.0617
     30 H           4.0406   -5.6256   -1.8976 H       1  UNL1        0.0618
     31 C           4.8303   -3.9954   -0.7567 C.ar    1  UNL1       -0.0611
     32 H           5.0598   -4.6045    0.1053 H       1  UNL1        0.0618
     33 C           5.1092   -2.6397   -0.7345 C.ar    1  UNL1       -0.0535
     34 H           5.5449   -2.1877    0.1460 H       1  UNL1        0.0624
@<TRIPOS>BOND
     1     8     7    1
     2     6     5    1
     3     7     5   ar
     4     7     9   ar
     5     5     3   ar
     6    10     9    1
     7     9    11   ar
     8     3     4    1
     9     3     2   ar
    10    28    27    1
    11    26    25    1
    12    11     2   ar
    13    11    12    1
    14     2     1    1
    15    17    16    1
    16    27    25   ar
    17    27    29   ar
    18    25    24   ar
    19    15    14    1
    20    16    14   ar
    21    16    18   ar
    22    14    13   ar
    23    19    18    1
    24    18    20   ar
    25    13     1    1
    26    13    22   ar
    27    30    29    1
    28    29    31   ar
    29     1    24    1
    30    24    33   ar
    31    20    22   ar
    32    20    21    1
    33    22    23    1
    34    31    33   ar
    35    31    32    1
    36    33    34    1
