@<TRIPOS>MOLECULE
1
 34 36 0 0 0
SMALL
GASTEIGER

@<TRIPOS>ATOM
      1 P           7.0620    1.5826    2.0894 P.3     1  UNL1       -0.0131
      2 C           5.9708    2.7642    2.9409 C.ar    1  UNL1       -0.0147
      3 C           5.9125    4.0747    2.4670 C.ar    1  UNL1       -0.0535
      4 H           6.5678    4.3677    1.6578 H       1  UNL1        0.0624
      5 C           5.0012    4.9642    3.0027 C.ar    1  UNL1       -0.0611
      6 H           4.9595    5.9798    2.6360 H       1  UNL1        0.0618
      7 C           4.1246    4.5488    3.9940 C.ar    1  UNL1       -0.0617
      8 H           3.4070    5.2443    4.4065 H       1  UNL1        0.0618
      9 C           4.1585    3.2401    4.4447 C.ar    1  UNL1       -0.0611
     10 H           3.4649    2.9102    5.2057 H       1  UNL1        0.0618
     11 C           5.0750    2.3456    3.9188 C.ar    1  UNL1       -0.0535
     12 H           5.0884    1.3184    4.2580 H       1  UNL1        0.0624
     13 C           8.7085    2.3637    2.1857 C.ar    1  UNL1       -0.0147
     14 C           9.7204    1.7260    1.4743 C.ar    1  UNL1       -0.0535
     15 H           9.4718    0.8679    0.8647 H       1  UNL1        0.0624
     16 C          11.0154    2.2050    1.5236 C.ar    1  UNL1       -0.0611
     17 H          11.7939    1.7073    0.9646 H       1  UNL1        0.0618
     18 C          11.3120    3.3262    2.2833 C.ar    1  UNL1       -0.0617
     19 H          12.3227    3.7066    2.3190 H       1  UNL1        0.0618
     20 C          10.3091    3.9608    2.9953 C.ar    1  UNL1       -0.0611
     21 H          10.5374    4.8347    3.5892 H       1  UNL1        0.0618
     22 C           9.0108    3.4810    2.9535 C.ar    1  UNL1       -0.0535
     23 H           8.2371    3.9870    3.5151 H       1  UNL1        0.0624
     24 C           7.3166    0.3351    3.4085 C.ar    1  UNL1       -0.0147
     25 C           7.0030   -1.0016    3.2058 C.ar    1  UNL1       -0.0535
     26 H           6.5840   -1.3107    2.2580 H       1  UNL1        0.0624
     27 C           7.2112   -1.9288    4.2121 C.ar    1  UNL1       -0.0611
     28 H           6.9632   -2.9667    4.0452 H       1  UNL1        0.0618
     29 C           7.7352   -1.5267    5.4282 C.ar    1  UNL1       -0.0617
     30 H           7.8992   -2.2496    6.2139 H       1  UNL1        0.0618
     31 C           8.0491   -0.1926    5.6381 C.ar    1  UNL1       -0.0611
     32 H           8.4572    0.1241    6.5872 H       1  UNL1        0.0618
     33 C           7.8430    0.7343    4.6350 C.ar    1  UNL1       -0.0535
     34 H           8.0894    1.7743    4.7999 H       1  UNL1        0.0624
@<TRIPOS>BOND
     1    15    14    1
     2    17    16    1
     3    14    16   ar
     4    14    13   ar
     5    16    18   ar
     6     4     3    1
     7     1    13    1
     8     1     2    1
     9     1    24    1
    10    13    22   ar
    11    26    25    1
    12    18    19    1
    13    18    20   ar
    14     3     2   ar
    15     3     5   ar
    16     6     5    1
    17     2    11   ar
    18    22    20   ar
    19    22    23    1
    20    20    21    1
    21     5     7   ar
    22    25    24   ar
    23    25    27   ar
    24    24    33   ar
    25    11    12    1
    26    11     9   ar
    27     7     8    1
    28     7     9   ar
    29    28    27    1
    30    27    29   ar
    31     9    10    1
    32    33    34    1
    33    33    31   ar
    34    29    31   ar
    35    29    30    1
    36    31    32    1
