@<TRIPOS>MOLECULE
1
 30 29 0 0 0
SMALL
GASTEIGER

@<TRIPOS>ATOM
      1 P           1.6733    3.3579   15.9407 P.3     1  UNL1        0.0000
      2 SI         -0.9831    2.6110   14.4185 Si      1  UNL1        0.0000
      3 F           2.7998    4.2435   18.3964 F       1  UNL1        0.0000
      4 F           4.5270    3.5143   17.3418 F       1  UNL1        0.0000
      5 F           3.9101    2.5815   19.1848 F       1  UNL1        0.0000
      6 F           4.4753    0.8100   17.1269 F       1  UNL1        0.0000
      7 F           2.6497    0.0408   16.3145 F       1  UNL1        0.0000
      8 F           3.6993    1.5991   15.2835 F       1  UNL1        0.0000
      9 O           1.6087    1.5942   18.0661 O.3     1  UNL1        0.0000
     10 H           0.8173    2.1548   18.1460 H       1  UNL1        0.0000
     11 O           0.5130    3.8806   16.9379 O.3     1  UNL1        0.0000
     12 H           0.6428    4.7825   17.2484 H       1  UNL1        0.0000
     13 C           2.5344    2.2206   17.2415 C.3     1  UNL1        0.0000
     14 C           3.4678    3.1183   18.0558 C.3     1  UNL1        0.0000
     15 C           3.3483    1.1546   16.5079 C.3     1  UNL1        0.0000
     16 C           0.7364    2.0590   15.1008 C.3     1  UNL1        0.0000
     17 H           0.5671    1.2352   15.7976 H       1  UNL1        0.0000
     18 H           1.3558    1.6907   14.2850 H       1  UNL1        0.0000
     19 C          -1.0826    4.4534   13.9602 C.3     1  UNL1        0.0000
     20 H          -1.1797    5.0815   14.8403 H       1  UNL1        0.0000
     21 H          -1.9523    4.6371   13.3365 H       1  UNL1        0.0000
     22 H          -0.2094    4.7859   13.4051 H       1  UNL1        0.0000
     23 C          -2.2548    2.2179   15.7852 C.3     1  UNL1        0.0000
     24 H          -2.2354    1.1664   16.0570 H       1  UNL1        0.0000
     25 H          -3.2610    2.4476   15.4504 H       1  UNL1        0.0000
     26 H          -2.0700    2.7958   16.6860 H       1  UNL1        0.0000
     27 C          -1.2612    1.5375   12.8713 C.3     1  UNL1        0.0000
     28 H          -0.5566    1.7839   12.0824 H       1  UNL1        0.0000
     29 H          -2.2597    1.6877   12.4753 H       1  UNL1        0.0000
     30 H          -1.1522    0.4798   13.0910 H       1  UNL1        0.0000
@<TRIPOS>BOND
     1    28    27    1
     2    29    27    1
     3    27    30    1
     4    27     2    1
     5    21    19    1
     6    22    19    1
     7    19     2    1
     8    19    20    1
     9    18    16    1
    10     2    16    1
    11     2    23    1
    12    16    17    1
    13    16     1    1
    14     8    15    1
    15    25    23    1
    16    23    24    1
    17    23    26    1
    18     1    11    1
    19     1    13    1
    20     7    15    1
    21    15     6    1
    22    15    13    1
    23    11    12    1
    24    13    14    1
    25    13     9    1
    26     4    14    1
    27    14     3    1
    28    14     5    1
    29     9    10    1
