@<TRIPOS>MOLECULE
1
 13 12 0 0 0
SMALL
GASTEIGER

@<TRIPOS>ATOM
      1 P           1.8129    4.0301   -0.0089 P.3     1  UNL1       -0.1154
      2 C           0.3658    3.5830    1.0393 C.3     1  UNL1       -0.0447
      3 C           1.2645    3.3435   -1.6277 C.3     1  UNL1       -0.0447
      4 C           2.8863    2.6262    0.5141 C.3     1  UNL1       -0.0447
      5 H          -0.5201    4.1156    0.7090 H       1  UNL1        0.0277
      6 H           0.1803    2.5107    0.9827 H       1  UNL1        0.0277
      7 H           0.5789    3.8560    2.0722 H       1  UNL1        0.0277
      8 H           0.5981    4.0458   -2.1236 H       1  UNL1        0.0277
      9 H           2.1406    3.1995   -2.2584 H       1  UNL1        0.0277
     10 H           0.7524    2.3914   -1.4929 H       1  UNL1        0.0277
     11 H           2.3904    1.6863    0.2725 H       1  UNL1        0.0277
     12 H           3.8485    2.6653    0.0151 H       1  UNL1        0.0277
     13 H           3.0472    2.6800    1.5873 H       1  UNL1        0.0277
@<TRIPOS>BOND
     1     9     3    1
     2     8     3    1
     3     3    10    1
     4     3     1    1
     5     1     4    1
     6     1     2    1
     7    12     4    1
     8    11     4    1
     9     4    13    1
    10     5     2    1
    11     6     2    1
    12     2     7    1
