@<TRIPOS>MOLECULE
1
 13 12 0 0 0
SMALL
GASTEIGER

@<TRIPOS>ATOM
      1 P           4.1353    5.9411   -1.5716 P.3     1  UNL1       -0.1154
      2 C           3.7528    6.0233   -3.3690 C.3     1  UNL1       -0.0447
      3 C           5.1362    4.4003   -1.5957 C.3     1  UNL1       -0.0447
      4 C           5.5280    7.1367   -1.5051 C.3     1  UNL1       -0.0447
      5 H           3.4665    7.0366   -3.6388 H       1  UNL1        0.0277
      6 H           4.6307    5.7352   -3.9467 H       1  UNL1        0.0277
      7 H           2.9291    5.3510   -3.6019 H       1  UNL1        0.0277
      8 H           4.5270    3.5712   -1.9497 H       1  UNL1        0.0277
      9 H           5.9850    4.5301   -2.2666 H       1  UNL1        0.0277
     10 H           5.4952    4.1889   -0.5920 H       1  UNL1        0.0277
     11 H           6.0897    6.9614   -0.5906 H       1  UNL1        0.0277
     12 H           6.1785    7.0016   -2.3689 H       1  UNL1        0.0277
     13 H           5.1508    8.1557   -1.4966 H       1  UNL1        0.0277
@<TRIPOS>BOND
     1     6     2    1
     2     5     2    1
     3     7     2    1
     4     2     1    1
     5    12     4    1
     6     9     3    1
     7     8     3    1
     8     3     1    1
     9     3    10    1
    10     1     4    1
    11     4    13    1
    12     4    11    1
