@<TRIPOS>MOLECULE
2
 48 49 0 0 0
SMALL
GASTEIGER

@<TRIPOS>ATOM
      1 SI          1.7054   11.1298   12.3179 Si      1  UNL1        0.0000
      2 P           2.8540   10.0795    9.4523 P.3     1  UNL1        0.0000
      3 C           4.0036    9.3217   10.6555 C.3     1  UNL1        0.0000
      4 H           4.8519    8.9021   10.1168 H       1  UNL1        0.0000
      5 H           3.4701    8.5278   11.1709 H       1  UNL1        0.0000
      6 H           4.3490   10.0566   11.3759 H       1  UNL1        0.0000
      7 C           3.9487   11.3153    8.6043 C.3     1  UNL1        0.0000
      8 H           4.7592   10.7176    8.1619 H       1  UNL1        0.0000
      9 C           3.1725   11.9985    7.4804 C.3     1  UNL1        0.0000
     10 H           2.7294   11.2421    6.8289 H       1  UNL1        0.0000
     11 H           2.3473   12.5743    7.9035 H       1  UNL1        0.0000
     12 C           4.0814   12.9298    6.6856 C.3     1  UNL1        0.0000
     13 H           3.5103   13.4178    5.8938 H       1  UNL1        0.0000
     14 H           4.8812   12.3513    6.2149 H       1  UNL1        0.0000
     15 C           4.6949   13.9775    7.6094 C.3     1  UNL1        0.0000
     16 H           5.3600   14.6336    7.0441 H       1  UNL1        0.0000
     17 H           3.8992   14.5929    8.0343 H       1  UNL1        0.0000
     18 C           5.4690   13.3015    8.7369 C.3     1  UNL1        0.0000
     19 H           5.8879   14.0561    9.4061 H       1  UNL1        0.0000
     20 H           6.3014   12.7337    8.3133 H       1  UNL1        0.0000
     21 C           4.5653   12.3589    9.5316 C.3     1  UNL1        0.0000
     22 H           3.7739   12.9375   10.0093 H       1  UNL1        0.0000
     23 H           5.1513   11.8765   10.3151 H       1  UNL1        0.0000
     24 C           1.6451   11.0587   10.4015 C.3     1  UNL1        0.0000
     25 H           0.6745   10.6323   10.1352 H       1  UNL1        0.0000
     26 H           1.6577   12.0643    9.9780 H       1  UNL1        0.0000
     27 C           1.7350    9.4264   13.1627 C.3     1  UNL1        0.0000
     28 H           1.1566    9.4516   14.0814 H       1  UNL1        0.0000
     29 H           2.7399    9.1096   13.4245 H       1  UNL1        0.0000
     30 H           1.3015    8.6719   12.5114 H       1  UNL1        0.0000
     31 C           3.1407   12.2287   12.9474 C.3     1  UNL1        0.0000
     32 H           3.0232   12.3874   14.0148 H       1  UNL1        0.0000
     33 H           3.1440   13.2056   12.4732 H       1  UNL1        0.0000
     34 H           4.1203   11.7879   12.7928 H       1  UNL1        0.0000
     35 C           0.0588   12.0268   12.7563 C.3     1  UNL1        0.0000
     36 H           0.0106   12.9815   12.2328 H       1  UNL1        0.0000
     37 H          -0.7740   11.4185   12.4060 H       1  UNL1        0.0000
     38 C          -0.0618   12.2520   14.2232 C.ar    1  UNL1        0.0000
     39 C           0.4707   13.3925   14.8140 C.ar    1  UNL1        0.0000
     40 H           0.9429   14.1382   14.1905 H       1  UNL1        0.0000
     41 C           0.3941   13.5870   16.1807 C.ar    1  UNL1        0.0000
     42 H           0.8104   14.4819   16.6212 H       1  UNL1        0.0000
     43 C          -0.2168   12.6399   16.9850 C.ar    1  UNL1        0.0000
     44 H          -0.2779   12.7907   18.0527 H       1  UNL1        0.0000
     45 C          -0.7558   11.5024   16.4086 C.ar    1  UNL1        0.0000
     46 H          -1.2417   10.7621   17.0280 H       1  UNL1        0.0000
     47 C          -0.6781   11.3118   15.0410 C.ar    1  UNL1        0.0000
     48 H          -1.1106   10.4273   14.5956 H       1  UNL1        0.0000
@<TRIPOS>BOND
     1    13    12    1
     2    14    12    1
     3    12     9    1
     4    12    15    1
     5    10     9    1
     6    16    15    1
     7     9    11    1
     8     9     7    1
     9    15    17    1
    10    15    18    1
    11     8     7    1
    12    20    18    1
    13     7     2    1
    14     7    21    1
    15    18    19    1
    16    18    21    1
    17     2    24    1
    18     2     3    1
    19    21    22    1
    20    21    23    1
    21    26    24    1
    22     4     3    1
    23    25    24    1
    24    24     1    1
    25     3     5    1
    26     3     6    1
    27    36    35    1
    28     1    35    1
    29     1    31    1
    30     1    27    1
    31    37    35    1
    32    33    31    1
    33    30    27    1
    34    35    38    1
    35    34    31    1
    36    31    32    1
    37    27    29    1
    38    27    28    1
    39    40    39    1
    40    38    39   ar
    41    38    47   ar
    42    48    47    1
    43    39    41   ar
    44    47    45   ar
    45    41    42    1
    46    41    43   ar
    47    45    43   ar
    48    45    46    1
    49    43    44    1
