@<TRIPOS>MOLECULE
1
 13 12 0 0 0
SMALL
GASTEIGER

@<TRIPOS>ATOM
      1 P           5.0358    4.0859    5.8264 P.3     1  UNL1       -0.1154
      2 C           3.3508    4.5501    6.4246 C.3     1  UNL1       -0.0447
      3 H           2.7495    3.6485    6.5280 H       1  UNL1        0.0277
      4 H           2.8729    5.2084    5.7002 H       1  UNL1        0.0277
      5 H           3.4213    5.0552    7.3883 H       1  UNL1        0.0277
      6 C           5.9547    5.5866    6.3316 C.3     1  UNL1       -0.0447
      7 H           5.7823    5.8238    7.3821 H       1  UNL1        0.0277
      8 H           5.6465    6.4177    5.7006 H       1  UNL1        0.0277
      9 H           7.0104    5.3925    6.1533 H       1  UNL1        0.0277
     10 C           5.5171    2.9981    7.2269 C.3     1  UNL1       -0.0447
     11 H           6.5972    2.8652    7.2024 H       1  UNL1        0.0277
     12 H           5.0402    2.0260    7.1181 H       1  UNL1        0.0277
     13 H           5.2179    3.4469    8.1747 H       1  UNL1        0.0277
@<TRIPOS>BOND
     1     4     2    1
     2     8     6    1
     3     1     6    1
     4     1     2    1
     5     1    10    1
     6     9     6    1
     7     6     7    1
     8     2     3    1
     9     2     5    1
    10    12    10    1
    11    11    10    1
    12    10    13    1
