@<TRIPOS>MOLECULE
1
 13 12 0 0 0
SMALL
GASTEIGER

@<TRIPOS>ATOM
      1 P           4.0527    4.6850    2.6217 P.3     1  UNL1       -0.1154
      2 C           3.9224    6.4703    3.0324 C.3     1  UNL1       -0.0447
      3 H           3.2489    6.9820    2.3436 H       1  UNL1        0.0277
      4 H           4.9214    6.8980    2.9660 H       1  UNL1        0.0277
      5 H           3.5645    6.5901    4.0534 H       1  UNL1        0.0277
      6 C           4.5606    4.8627    0.8596 C.3     1  UNL1       -0.0447
      7 H           4.4538    3.9072    0.3463 H       1  UNL1        0.0277
      8 H           5.6056    5.1715    0.8312 H       1  UNL1        0.0277
      9 H           3.9449    5.6107    0.3587 H       1  UNL1        0.0277
     10 C           2.2653    4.3280    2.3487 C.3     1  UNL1       -0.0447
     11 H           1.7256    4.4547    3.2867 H       1  UNL1        0.0277
     12 H           2.1490    3.3005    2.0038 H       1  UNL1        0.0277
     13 H           1.8523    5.0081    1.6033 H       1  UNL1        0.0277
@<TRIPOS>BOND
     1     7     6    1
     2     9     6    1
     3     8     6    1
     4     6     1    1
     5    13    10    1
     6    12    10    1
     7     3     2    1
     8    10     1    1
     9    10    11    1
    10     1     2    1
    11     4     2    1
    12     2     5    1
