@<TRIPOS>MOLECULE
1
 16 15 0 0 0
SMALL
GASTEIGER

@<TRIPOS>ATOM
      1 P           3.1314    1.8912    4.1353 P.3     1  UNL1        0.3337
      2 O           2.2374    2.9891    3.3688 O.3     1  UNL1       -0.3149
      3 O           4.5694    2.5435    3.7250 O.3     1  UNL1       -0.3149
      4 O           2.8878    2.4495    5.6311 O.3     1  UNL1       -0.3149
      5 C           2.3023    3.1978    1.9696 C.3     1  UNL1        0.0452
      6 C           5.7707    1.8136    3.7711 C.3     1  UNL1        0.0452
      7 C           3.0820    3.8200    5.9560 C.3     1  UNL1        0.0452
      8 H           1.8624    4.1792    1.7839 H       1  UNL1        0.0528
      9 H           1.7326    2.4294    1.4466 H       1  UNL1        0.0528
     10 H           3.3365    3.1899    1.6236 H       1  UNL1        0.0528
     11 H           6.3316    2.0215    2.8576 H       1  UNL1        0.0528
     12 H           5.5644    0.7372    3.8408 H       1  UNL1        0.0528
     13 H           6.3623    2.1193    4.6363 H       1  UNL1        0.0528
     14 H           3.3497    3.8654    7.0123 H       1  UNL1        0.0528
     15 H           2.1619    4.3811    5.7857 H       1  UNL1        0.0528
     16 H           3.8828    4.2507    5.3530 H       1  UNL1        0.0528
@<TRIPOS>BOND
     1     9     5    1
     2    10     5    1
     3     8     5    1
     4     5     2    1
     5    11     6    1
     6     2     1    1
     7     3     6    1
     8     3     1    1
     9     6    12    1
    10     6    13    1
    11     1     4    1
    12    16     7    1
    13     4     7    1
    14    15     7    1
    15     7    14    1
