@<TRIPOS>MOLECULE
1
 16 15 0 0 0
SMALL
GASTEIGER

@<TRIPOS>ATOM
      1 P           0.7736   -0.2378    3.4435 P.3     1  UNL1        0.3337
      2 O          -0.3165    0.2100    4.5347 O.3     1  UNL1       -0.3149
      3 O          -0.0395   -1.5883    3.1248 O.3     1  UNL1       -0.3149
      4 O           0.4024    0.6995    2.1549 O.3     1  UNL1       -0.3149
      5 C          -0.2493    1.5035    5.1020 C.3     1  UNL1        0.0452
      6 C           0.5853   -2.7662    2.6642 C.3     1  UNL1        0.0452
      7 C          -0.9308    0.7181    1.6564 C.3     1  UNL1        0.0452
      8 H          -1.1546    1.6293    5.6971 H       1  UNL1        0.0528
      9 H          -0.2051    2.2731    4.3279 H       1  UNL1        0.0528
     10 H           0.6309    1.6018    5.7394 H       1  UNL1        0.0528
     11 H           0.2596   -3.5949    3.2956 H       1  UNL1        0.0528
     12 H           1.6762   -2.6617    2.7114 H       1  UNL1        0.0528
     13 H           0.2835   -2.9588    1.6323 H       1  UNL1        0.0528
     14 H          -1.2234    1.7592    1.5085 H       1  UNL1        0.0528
     15 H          -1.6157    0.2382    2.3583 H       1  UNL1        0.0528
     16 H          -0.9669    0.1907    0.7011 H       1  UNL1        0.0528
@<TRIPOS>BOND
     1    16     7    1
     2    14     7    1
     3    13     6    1
     4     7     4    1
     5     7    15    1
     6     4     1    1
     7     6    12    1
     8     6     3    1
     9     6    11    1
    10     3     1    1
    11     1     2    1
    12     9     5    1
    13     2     5    1
    14     5     8    1
    15     5    10    1
