@<TRIPOS>MOLECULE
1
 34 36 0 0 0
SMALL
GASTEIGER

@<TRIPOS>ATOM
      1 P           2.3830   -0.5837   -5.0999 P.3     1  UNL1       -0.0131
      2 C           3.3683   -0.4260   -6.6204 C.ar    1  UNL1       -0.0147
      3 C           4.5109   -1.1647   -6.8944 C.ar    1  UNL1       -0.0535
      4 C           5.1781   -0.9819   -8.0931 C.ar    1  UNL1       -0.0611
      5 C           4.7085   -0.0716   -9.0246 C.ar    1  UNL1       -0.0617
      6 C           3.5661    0.6648   -8.7545 C.ar    1  UNL1       -0.0611
      7 C           2.8999    0.4951   -7.5554 C.ar    1  UNL1       -0.0535
      8 C           0.7133   -1.0979   -5.5682 C.ar    1  UNL1       -0.0147
      9 C          -0.2681   -1.0243   -4.5834 C.ar    1  UNL1       -0.0535
     10 C          -1.5616   -1.4197   -4.8681 C.ar    1  UNL1       -0.0611
     11 C          -1.8697   -1.9244   -6.1226 C.ar    1  UNL1       -0.0617
     12 C          -0.8891   -2.0168   -7.0957 C.ar    1  UNL1       -0.0611
     13 C           0.4023   -1.5978   -6.8253 C.ar    1  UNL1       -0.0535
     14 C           2.1262    1.2062   -4.7169 C.ar    1  UNL1       -0.0147
     15 C           0.9676    1.8962   -5.0578 C.ar    1  UNL1       -0.0535
     16 C           0.8491    3.2453   -4.7711 C.ar    1  UNL1       -0.0611
     17 C           1.8837    3.9188   -4.1454 C.ar    1  UNL1       -0.0617
     18 C           3.0423    3.2382   -3.8072 C.ar    1  UNL1       -0.0611
     19 C           3.1635    1.8904   -4.0901 C.ar    1  UNL1       -0.0535
     20 H           4.8757   -1.8745   -6.1705 H       1  UNL1        0.0624
     21 H           6.0704   -1.5541   -8.2991 H       1  UNL1        0.0618
     22 H           5.2314    0.0671   -9.9595 H       1  UNL1        0.0618
     23 H           3.1950    1.3763   -9.4778 H       1  UNL1        0.0618
     24 H           2.0132    1.0760   -7.3426 H       1  UNL1        0.0624
     25 H          -0.0010   -0.6393   -3.6057 H       1  UNL1        0.0624
     26 H          -2.3282   -1.3369   -4.1120 H       1  UNL1        0.0618
     27 H          -2.8774   -2.2454   -6.3419 H       1  UNL1        0.0618
     28 H          -1.1298   -2.4151   -8.0701 H       1  UNL1        0.0618
     29 H           1.1676   -1.6540   -7.5854 H       1  UNL1        0.0624
     30 H           0.1510    1.3832   -5.5471 H       1  UNL1        0.0624
     31 H          -0.0569    3.7703   -5.0382 H       1  UNL1        0.0618
     32 H           1.7859    4.9709   -3.9210 H       1  UNL1        0.0618
     33 H           3.8525    3.7589   -3.3191 H       1  UNL1        0.0618
     34 H           4.0648    1.3553   -3.8236 H       1  UNL1        0.0624
@<TRIPOS>BOND
     1    22     5    1
     2    23     6    1
     3     5     6   ar
     4     5     4   ar
     5     6     7   ar
     6    21     4    1
     7     4     3   ar
     8    28    12    1
     9    29    13    1
    10     7    24    1
    11     7     2   ar
    12    12    13   ar
    13    12    11   ar
    14     3     2   ar
    15     3    20    1
    16    13     8   ar
    17     2     1    1
    18    27    11    1
    19    11    10   ar
    20     8     1    1
    21     8     9   ar
    22    30    15    1
    23     1    14    1
    24    15    16   ar
    25    15    14   ar
    26    31    16    1
    27    10     9   ar
    28    10    26    1
    29    16    17   ar
    30    14    19   ar
    31     9    25    1
    32    17    32    1
    33    17    18   ar
    34    19    34    1
    35    19    18   ar
    36    18    33    1
