@<TRIPOS>MOLECULE
1
 34 36 0 0 0
SMALL
GASTEIGER

@<TRIPOS>ATOM
      1 P          -2.0576   -5.5600   -2.0356 P.3     1  UNL1       -0.0131
      2 C          -3.3851   -5.1424   -3.2030 C.ar    1  UNL1       -0.0147
      3 C          -3.8519   -6.1772   -4.0130 C.ar    1  UNL1       -0.0535
      4 C          -4.8469   -5.9330   -4.9405 C.ar    1  UNL1       -0.0611
      5 C          -5.3819   -4.6607   -5.0695 C.ar    1  UNL1       -0.0617
      6 C          -4.9240   -3.6343   -4.2611 C.ar    1  UNL1       -0.0611
      7 C          -3.9287   -3.8688   -3.3283 C.ar    1  UNL1       -0.0535
      8 C          -1.8425   -4.0646   -1.0185 C.ar    1  UNL1       -0.0147
      9 C          -1.3816   -2.9005   -1.6320 C.ar    1  UNL1       -0.0535
     10 C          -1.1692   -1.7549   -0.8902 C.ar    1  UNL1       -0.0611
     11 C          -1.3945   -1.7642    0.4770 C.ar    1  UNL1       -0.0617
     12 C          -1.8344   -2.9223    1.0954 C.ar    1  UNL1       -0.0611
     13 C          -2.0584   -4.0701    0.3551 C.ar    1  UNL1       -0.0535
     14 C          -2.8462   -6.7360   -0.8973 C.ar    1  UNL1       -0.0147
     15 C          -4.2229   -6.7294   -0.6979 C.ar    1  UNL1       -0.0535
     16 C          -4.7920   -7.6270    0.1876 C.ar    1  UNL1       -0.0611
     17 C          -3.9951   -8.5270    0.8759 C.ar    1  UNL1       -0.0617
     18 C          -2.6228   -8.5308    0.6819 C.ar    1  UNL1       -0.0611
     19 C          -2.0464   -7.6383   -0.2026 C.ar    1  UNL1       -0.0535
     20 H          -3.4184   -7.1641   -3.9156 H       1  UNL1        0.0624
     21 H          -5.2019   -6.7370   -5.5683 H       1  UNL1        0.0618
     22 H          -6.1554   -4.4692   -5.7989 H       1  UNL1        0.0618
     23 H          -5.3419   -2.6426   -4.3553 H       1  UNL1        0.0618
     24 H          -3.5867   -3.0612   -2.6978 H       1  UNL1        0.0624
     25 H          -1.1871   -2.9005   -2.6963 H       1  UNL1        0.0624
     26 H          -0.8173   -0.8577   -1.3772 H       1  UNL1        0.0618
     27 H          -1.2224   -0.8714    1.0591 H       1  UNL1        0.0618
     28 H          -2.0055   -2.9335    2.1618 H       1  UNL1        0.0618
     29 H          -2.4022   -4.9705    0.8428 H       1  UNL1        0.0624
     30 H          -4.8450   -6.0293   -1.2384 H       1  UNL1        0.0624
     31 H          -5.8619   -7.6268    0.3367 H       1  UNL1        0.0618
     32 H          -4.4458   -9.2310    1.5597 H       1  UNL1        0.0618
     33 H          -2.0030   -9.2371    1.2133 H       1  UNL1        0.0618
     34 H          -0.9774   -7.6460   -0.3803 H       1  UNL1        0.0624
@<TRIPOS>BOND
     1    22     5    1
     2    21     4    1
     3     5     4   ar
     4     5     6   ar
     5     4     3   ar
     6    23     6    1
     7     6     7   ar
     8     3    20    1
     9     3     2   ar
    10     7     2   ar
    11     7    24    1
    12     2     1    1
    13    25     9    1
    14     1     8    1
    15     1    14    1
    16     9     8   ar
    17     9    10   ar
    18    26    10    1
    19    30    15    1
    20     8    13   ar
    21    14    15   ar
    22    14    19   ar
    23    10    11   ar
    24    15    16   ar
    25    34    19    1
    26    19    18   ar
    27    16    31    1
    28    16    17   ar
    29    13    29    1
    30    13    12   ar
    31    11    27    1
    32    11    12   ar
    33    18    17   ar
    34    18    33    1
    35    17    32    1
    36    12    28    1
