@<TRIPOS>MOLECULE
1
 72 72 0 0 0
SMALL
GASTEIGER

@<TRIPOS>ATOM
      1 P           3.9369    3.6819    2.4022 P.3     1  UNL1        0.0000
      2 P           5.7348    4.7799    1.6309 P.3     1  UNL1        0.0000
      3 P           6.8918    3.6837    3.1458 P.3     1  UNL1        0.0000
      4 P           5.4308    2.0670    2.8431 P.3     1  UNL1        0.0000
      5 SI          3.2062    2.8502    0.4128 Si      1  UNL1        0.0000
      6 C           4.6448    2.0635   -0.5648 C.3     1  UNL1        0.0000
      7 C           1.8760    1.5390    0.8133 C.3     1  UNL1        0.0000
      8 C           2.4536    4.2987   -0.5792 C.3     1  UNL1        0.0000
      9 SI          8.6704    2.9699    1.9232 Si      1  UNL1        0.0000
     10 C           9.8991    4.4329    1.8875 C.3     1  UNL1        0.0000
     11 C           8.2812    2.4374    0.1288 C.3     1  UNL1        0.0000
     12 C           9.4395    1.5005    2.8705 C.3     1  UNL1        0.0000
     13 N           5.6901    6.3556    2.2195 N.3     1  UNL1        0.0000
     14 C           5.8842    6.6892    3.6274 C.3     1  UNL1        0.0000
     15 C           7.3383    7.0384    3.9431 C.3     1  UNL1        0.0000
     16 C           4.9543    7.8043    4.1028 C.3     1  UNL1        0.0000
     17 C           5.8274    7.4245    1.2282 C.3     1  UNL1        0.0000
     18 C           7.1107    7.2941    0.4084 C.3     1  UNL1        0.0000
     19 C           4.6081    7.4383    0.3117 C.3     1  UNL1        0.0000
     20 N           5.1345    1.4870    4.3949 N.3     1  UNL1        0.0000
     21 C           4.9946    0.0361    4.5332 C.3     1  UNL1        0.0000
     22 C           6.2222   -0.7191    4.0254 C.3     1  UNL1        0.0000
     23 C           3.7423   -0.4365    3.8009 C.3     1  UNL1        0.0000
     24 C           5.3701    2.2777    5.5993 C.3     1  UNL1        0.0000
     25 C           6.7505    2.0177    6.2012 C.3     1  UNL1        0.0000
     26 C           4.2823    2.0818    6.6539 C.3     1  UNL1        0.0000
     27 H           5.0556    1.2089   -0.0355 H       1  UNL1        0.0000
     28 H           5.4453    2.7808   -0.7148 H       1  UNL1        0.0000
     29 H           4.3074    1.7253   -1.5392 H       1  UNL1        0.0000
     30 H           0.9029    2.0023    0.9359 H       1  UNL1        0.0000
     31 H           2.1029    1.0062    1.7318 H       1  UNL1        0.0000
     32 H           1.7936    0.8112    0.0133 H       1  UNL1        0.0000
     33 H           1.9994    5.0296    0.0849 H       1  UNL1        0.0000
     34 H           1.6839    3.9381   -1.2528 H       1  UNL1        0.0000
     35 H           3.2010    4.8105   -1.1768 H       1  UNL1        0.0000
     36 H           9.4839    5.2832    1.3555 H       1  UNL1        0.0000
     37 H          10.8194    4.1471    1.3893 H       1  UNL1        0.0000
     38 H          10.1536    4.7596    2.8913 H       1  UNL1        0.0000
     39 H           7.8243    3.2519   -0.4260 H       1  UNL1        0.0000
     40 H           7.5979    1.5944    0.1091 H       1  UNL1        0.0000
     41 H           9.1884    2.1468   -0.3921 H       1  UNL1        0.0000
     42 H           9.6966    1.7799    3.8876 H       1  UNL1        0.0000
     43 H          10.3467    1.1629    2.3809 H       1  UNL1        0.0000
     44 H           8.7542    0.6603    2.9193 H       1  UNL1        0.0000
     45 H           5.6155    5.7785    4.1817 H       1  UNL1        0.0000
     46 H           7.4565    7.1887    5.0132 H       1  UNL1        0.0000
     47 H           7.6373    7.9498    3.4300 H       1  UNL1        0.0000
     48 H           7.9938    6.2264    3.6302 H       1  UNL1        0.0000
     49 H           4.9213    7.8034    5.1895 H       1  UNL1        0.0000
     50 H           3.9478    7.6470    3.7295 H       1  UNL1        0.0000
     51 H           5.2988    8.7837    3.7783 H       1  UNL1        0.0000
     52 H           5.8618    8.3701    1.7747 H       1  UNL1        0.0000
     53 H           7.9809    7.2825    1.0602 H       1  UNL1        0.0000
     54 H           7.2027    8.1279   -0.2837 H       1  UNL1        0.0000
     55 H           7.0915    6.3662   -0.1619 H       1  UNL1        0.0000
     56 H           4.6697    8.2609   -0.3965 H       1  UNL1        0.0000
     57 H           3.6984    7.5453    0.8965 H       1  UNL1        0.0000
     58 H           4.5574    6.5004   -0.2383 H       1  UNL1        0.0000
     59 H           4.8734   -0.1761    5.5983 H       1  UNL1        0.0000
     60 H           7.1184   -0.3855    4.5423 H       1  UNL1        0.0000
     61 H           6.3475   -0.5396    2.9581 H       1  UNL1        0.0000
     62 H           6.1010   -1.7877    4.1877 H       1  UNL1        0.0000
     63 H           2.8712    0.1076    4.1577 H       1  UNL1        0.0000
     64 H           3.5825   -1.4996    3.9632 H       1  UNL1        0.0000
     65 H           3.8555   -0.2573    2.7324 H       1  UNL1        0.0000
     66 H           5.3245    3.3261    5.2710 H       1  UNL1        0.0000
     67 H           6.9239    2.6976    7.0315 H       1  UNL1        0.0000
     68 H           7.5218    2.1813    5.4492 H       1  UNL1        0.0000
     69 H           6.8268    0.9963    6.5677 H       1  UNL1        0.0000
     70 H           4.3372    2.8902    7.3788 H       1  UNL1        0.0000
     71 H           4.4024    1.1425    7.1893 H       1  UNL1        0.0000
     72 H           3.2990    2.0993    6.1950 H       1  UNL1        0.0000
@<TRIPOS>BOND
     1    29     6    1
     2    34     8    1
     3    35     8    1
     4    28     6    1
     5     8    33    1
     6     8     5    1
     7     6    27    1
     8     6     5    1
     9    39    11    1
    10    56    19    1
    11    41    11    1
    12    54    18    1
    13    58    19    1
    14    55    18    1
    15    32     7    1
    16    40    11    1
    17    11     9    1
    18    19    57    1
    19    19    17    1
    20    18    53    1
    21    18    17    1
    22     5     7    1
    23     5     1    1
    24     7    30    1
    25     7    31    1
    26    17    52    1
    27    17    13    1
    28    36    10    1
    29    37    10    1
    30     2    13    1
    31     2     1    1
    32     2     3    1
    33    10     9    1
    34    10    38    1
    35     9    12    1
    36     9     3    1
    37    13    14    1
    38    43    12    1
    39     1     4    1
    40    65    23    1
    41     4     3    1
    42     4    20    1
    43    12    44    1
    44    12    42    1
    45    61    22    1
    46    47    15    1
    47    14    15    1
    48    14    16    1
    49    14    45    1
    50    48    15    1
    51    50    16    1
    52    51    16    1
    53    23    64    1
    54    23    63    1
    55    23    21    1
    56    15    46    1
    57    22    62    1
    58    22    21    1
    59    22    60    1
    60    16    49    1
    61    20    21    1
    62    20    24    1
    63    21    59    1
    64    66    24    1
    65    68    25    1
    66    24    25    1
    67    24    26    1
    68    72    26    1
    69    25    69    1
    70    25    67    1
    71    26    71    1
    72    26    70    1
