@<TRIPOS>MOLECULE
1
 52 54 0 0 0
SMALL
GASTEIGER

@<TRIPOS>ATOM
      1 P           1.7602   -1.2547   13.2624 P.3     1  UNL1       -0.0964
      2 C           3.0696   -1.4659   14.5879 C.3     1  UNL1       -0.0200
      3 H           3.8496   -2.1757   14.2871 H       1  UNL1        0.0349
      4 C           3.7290   -0.1432   14.9799 C.3     1  UNL1       -0.0463
      5 H           4.3032    0.2654   14.1484 H       1  UNL1        0.0271
      6 H           2.9489    0.5835   15.2430 H       1  UNL1        0.0271
      7 C           4.6584   -0.3394   16.1758 C.3     1  UNL1       -0.0525
      8 H           5.4512   -1.0446   15.9102 H       1  UNL1        0.0265
      9 H           5.1301    0.6117   16.4301 H       1  UNL1        0.0265
     10 C           3.8832   -0.8701   17.3762 C.3     1  UNL1       -0.0530
     11 H           3.1342   -0.1324   17.6714 H       1  UNL1        0.0265
     12 H           4.5564   -1.0234   18.2219 H       1  UNL1        0.0265
     13 C           3.1904   -2.1805   17.0175 C.3     1  UNL1       -0.0525
     14 H           2.5971   -2.5368   17.8634 H       1  UNL1        0.0265
     15 H           3.9434   -2.9424   16.7939 H       1  UNL1        0.0265
     16 C           2.2923   -1.9945   15.8006 C.3     1  UNL1       -0.0463
     17 H           1.5049   -1.2457   16.0575 H       1  UNL1        0.0271
     18 H           1.8082   -2.9489   15.5634 H       1  UNL1        0.0271
     19 C           2.6014   -0.4701   11.7907 C.3     1  UNL1       -0.0200
     20 H           1.9757   -0.7771   10.9421 H       1  UNL1        0.0349
     21 C           4.0403   -0.8908   11.4934 C.3     1  UNL1       -0.0463
     22 H           4.1202   -1.9752   11.4148 H       1  UNL1        0.0271
     23 H           4.7061   -0.5663   12.2938 H       1  UNL1        0.0271
     24 C           4.5009   -0.2564   10.1812 C.3     1  UNL1       -0.0525
     25 H           5.5331   -0.5497    9.9753 H       1  UNL1        0.0265
     26 H           3.8794   -0.6259    9.3616 H       1  UNL1        0.0265
     27 C           4.3944    1.2639   10.2481 C.3     1  UNL1       -0.0530
     28 H           4.7125    1.6993    9.2987 H       1  UNL1        0.0265
     29 H           5.0614    1.6399   11.0275 H       1  UNL1        0.0265
     30 C           2.9615    1.6832   10.5637 C.3     1  UNL1       -0.0525
     31 H           2.8980    2.7702   10.6354 H       1  UNL1        0.0265
     32 H           2.3019    1.3625    9.7538 H       1  UNL1        0.0265
     33 C           2.5008    1.0540   11.8754 C.3     1  UNL1       -0.0463
     34 H           1.4659    1.3359   12.0874 H       1  UNL1        0.0271
     35 H           3.1217    1.4335   12.6877 H       1  UNL1        0.0271
     36 C           1.4589   -3.0353   12.7096 C.3     1  UNL1       -0.0200
     37 H           0.7545   -3.4080   13.4678 H       1  UNL1        0.0349
     38 C           0.7038   -3.0533   11.3800 C.3     1  UNL1       -0.0463
     39 H           1.3787   -2.7840   10.5644 H       1  UNL1        0.0271
     40 H          -0.1156   -2.3308   11.4097 H       1  UNL1        0.0271
     41 C           0.1523   -4.4501   11.1089 C.3     1  UNL1       -0.0525
     42 H          -0.5513   -4.7227   11.8984 H       1  UNL1        0.0265
     43 H          -0.3947   -4.4535   10.1642 H       1  UNL1        0.0265
     44 C           1.2936   -5.4613   11.0564 C.3     1  UNL1       -0.0530
     45 H           0.8986   -6.4654   10.8891 H       1  UNL1        0.0265
     46 H           1.9530   -5.2192   10.2193 H       1  UNL1        0.0265
     47 C           2.0933   -5.4312   12.3550 C.3     1  UNL1       -0.0525
     48 H           2.9328   -6.1277   12.2909 H       1  UNL1        0.0265
     49 H           1.4556   -5.7568   13.1793 H       1  UNL1        0.0265
     50 C           2.6221   -4.0260   12.6473 C.3     1  UNL1       -0.0463
     51 H           3.3170   -3.7447   11.8550 H       1  UNL1        0.0271
     52 H           3.1725   -4.0511   13.5898 H       1  UNL1        0.0271
@<TRIPOS>BOND
     1    28    27    1
     2    26    24    1
     3    32    30    1
     4    25    24    1
     5    43    41    1
     6    24    27    1
     7    24    21    1
     8    46    44    1
     9    27    30    1
    10    27    29    1
    11    30    31    1
    12    30    33    1
    13    39    38    1
    14    45    44    1
    15    20    19    1
    16    44    41    1
    17    44    47    1
    18    41    38    1
    19    41    42    1
    20    38    40    1
    21    38    36    1
    22    22    21    1
    23    21    19    1
    24    21    23    1
    25    19    33    1
    26    19     1    1
    27    51    50    1
    28    33    34    1
    29    33    35    1
    30    48    47    1
    31    47    50    1
    32    47    49    1
    33    50    36    1
    34    50    52    1
    35    36     1    1
    36    36    37    1
    37     1     2    1
    38     5     4    1
    39     3     2    1
    40     2     4    1
    41     2    16    1
    42     4     6    1
    43     4     7    1
    44    18    16    1
    45    16    17    1
    46    16    13    1
    47     8     7    1
    48     7     9    1
    49     7    10    1
    50    15    13    1
    51    13    10    1
    52    13    14    1
    53    10    11    1
    54    10    12    1
