@<TRIPOS>MOLECULE
1
 34 36 0 0 0
SMALL
GASTEIGER

@<TRIPOS>ATOM
      1 P           1.1822   12.5522    3.1078 P.3     1  UNL1       -0.0131
      2 C           0.8218   14.1720    2.3390 C.ar    1  UNL1       -0.0147
      3 C          -0.5263   14.5227    2.2879 C.ar    1  UNL1       -0.0535
      4 C          -0.9196   15.7141    1.7103 C.ar    1  UNL1       -0.0611
      5 C           0.0327   16.5749    1.1858 C.ar    1  UNL1       -0.0617
      6 C           1.3732   16.2340    1.2364 C.ar    1  UNL1       -0.0611
      7 C           1.7708   15.0362    1.8079 C.ar    1  UNL1       -0.0535
      8 C           0.2519   11.5469    1.8857 C.ar    1  UNL1       -0.0147
      9 C          -0.5761   10.5215    2.3213 C.ar    1  UNL1       -0.0535
     10 C          -1.2904    9.7632    1.4098 C.ar    1  UNL1       -0.0611
     11 C          -1.1819   10.0258    0.0549 C.ar    1  UNL1       -0.0617
     12 C          -0.3610   11.0519   -0.3877 C.ar    1  UNL1       -0.0611
     13 C           0.3509   11.8118    0.5208 C.ar    1  UNL1       -0.0535
     14 C           2.9099   12.2577    2.5861 C.ar    1  UNL1       -0.0147
     15 C           3.2993   11.2796    1.6796 C.ar    1  UNL1       -0.0535
     16 C           4.6429   11.0832    1.4064 C.ar    1  UNL1       -0.0611
     17 C           5.6062   11.8524    2.0364 C.ar    1  UNL1       -0.0617
     18 C           5.2252   12.8139    2.9600 C.ar    1  UNL1       -0.0611
     19 C           3.8865   13.0056    3.2419 C.ar    1  UNL1       -0.0535
     20 H          -1.2581   13.8468    2.7095 H       1  UNL1        0.0624
     21 H          -1.9663   15.9770    1.6732 H       1  UNL1        0.0618
     22 H          -0.2711   17.5096    0.7380 H       1  UNL1        0.0618
     23 H           2.1166   16.9028    0.8272 H       1  UNL1        0.0618
     24 H           2.8193   14.7774    1.8360 H       1  UNL1        0.0624
     25 H          -0.6595   10.3364    3.3829 H       1  UNL1        0.0624
     26 H          -1.9349    8.9688    1.7567 H       1  UNL1        0.0618
     27 H          -1.7390    9.4354   -0.6577 H       1  UNL1        0.0618
     28 H          -0.2789   11.2603   -1.4446 H       1  UNL1        0.0618
     29 H           0.9883   12.6159    0.1773 H       1  UNL1        0.0624
     30 H           2.5576   10.6670    1.1867 H       1  UNL1        0.0624
     31 H           4.9383   10.3215    0.6993 H       1  UNL1        0.0618
     32 H           6.6521   11.6954    1.8173 H       1  UNL1        0.0618
     33 H           5.9707   13.4075    3.4692 H       1  UNL1        0.0618
     34 H           3.5793   13.7289    3.9840 H       1  UNL1        0.0624
@<TRIPOS>BOND
     1    28    12    1
     2    27    11    1
     3    12    11   ar
     4    12    13   ar
     5    11    10   ar
     6    29    13    1
     7    13     8   ar
     8    31    16    1
     9    22     5    1
    10    23     6    1
    11     5     6   ar
    12     5     4   ar
    13    30    15    1
    14     6     7   ar
    15    16    15   ar
    16    16    17   ar
    17    10    26    1
    18    10     9   ar
    19    21     4    1
    20    15    14   ar
    21     4     3   ar
    22     7    24    1
    23     7     2   ar
    24    32    17    1
    25     8     9   ar
    26     8     1    1
    27    17    18   ar
    28     3     2   ar
    29     3    20    1
    30     9    25    1
    31     2     1    1
    32    14     1    1
    33    14    19   ar
    34    18    19   ar
    35    18    33    1
    36    19    34    1
