@<TRIPOS>MOLECULE
1
 54 55 0 0 0
SMALL
GASTEIGER

@<TRIPOS>ATOM
      1 P           3.3598    3.6449    9.5714 P.3     1  UNL1        0.0000
      2 SI          2.0471    5.8183   11.2747 Si      1  UNL1        0.0000
      3 SI          0.5218    2.9883   10.3460 Si      1  UNL1        0.0000
      4 N           3.4606    2.2469   10.4404 N.2     1  UNL1        0.5000
      5 N           5.4235    3.2909   11.0610 N.2     1  UNL1        0.5000
      6 C           4.8848    4.2528   10.3890 C.2     1  UNL1        0.0000
      7 C           4.5932    2.1932   11.0926 C.2     1  UNL1        0.0000
      8 C           1.7728    4.4172    9.9776 C.3     1  UNL1        0.0000
      9 H           1.4586    4.8965    9.0457 H       1  UNL1        0.0000
     10 C           2.8514    7.2689   10.3245 C.3     1  UNL1        0.0000
     11 H           2.1208    8.0357   10.0830 H       1  UNL1        0.0000
     12 H           3.2939    6.9377    9.3886 H       1  UNL1        0.0000
     13 H           3.6336    7.7396   10.9126 H       1  UNL1        0.0000
     14 C           3.1059    5.1986   12.7321 C.3     1  UNL1        0.0000
     15 H           2.7043    5.5382   13.6822 H       1  UNL1        0.0000
     16 H           4.1269    5.5629   12.6642 H       1  UNL1        0.0000
     17 H           3.1469    4.1134   12.7638 H       1  UNL1        0.0000
     18 C           0.3580    6.4152   11.9257 C.3     1  UNL1        0.0000
     19 H           0.4995    7.2885   12.5535 H       1  UNL1        0.0000
     20 H          -0.1436    5.6615   12.5222 H       1  UNL1        0.0000
     21 H          -0.3075    6.6994   11.1179 H       1  UNL1        0.0000
     22 C           0.7076    1.5156    9.1495 C.3     1  UNL1        0.0000
     23 H           1.7440    1.3705    8.8586 H       1  UNL1        0.0000
     24 H           0.1204    1.6545    8.2467 H       1  UNL1        0.0000
     25 H           0.3666    0.5972    9.6182 H       1  UNL1        0.0000
     26 C           0.7126    2.4155   12.1535 C.3     1  UNL1        0.0000
     27 H          -0.0509    1.6844   12.3998 H       1  UNL1        0.0000
     28 H           0.6162    3.2397   12.8528 H       1  UNL1        0.0000
     29 H           1.6793    1.9499   12.3165 H       1  UNL1        0.0000
     30 C          -1.2159    3.7219   10.0607 C.3     1  UNL1        0.0000
     31 H          -1.9600    2.9371   10.1381 H       1  UNL1        0.0000
     32 H          -1.3103    4.1628    9.0736 H       1  UNL1        0.0000
     33 H          -1.4688    4.4827   10.7886 H       1  UNL1        0.0000
     34 C           5.0078    1.0147   11.8267 C.ar    1  UNL1        0.0000
     35 C           4.2034   -0.1265   11.8294 C.ar    1  UNL1        0.0000
     36 H           3.2773   -0.1126   11.2753 H       1  UNL1        0.0000
     37 C           4.6023   -1.2483   12.5277 C.ar    1  UNL1        0.0000
     38 H           3.9817   -2.1321   12.5274 H       1  UNL1        0.0000
     39 C           5.8006   -1.2436   13.2266 C.ar    1  UNL1        0.0000
     40 H           6.1107   -2.1243   13.7696 H       1  UNL1        0.0000
     41 C           6.6024   -0.1124   13.2270 C.ar    1  UNL1        0.0000
     42 H           7.5354   -0.1132   13.7708 H       1  UNL1        0.0000
     43 C           6.2129    1.0148   12.5302 C.ar    1  UNL1        0.0000
     44 H           6.8233    1.9040   12.5152 H       1  UNL1        0.0000
     45 C           5.5723    5.5370   10.1795 C.2     1  UNL1        0.0000
     46 C           6.2690    7.0945    8.5528 C.3     1  UNL1        0.0000
     47 H           6.0680    7.8251    9.3427 H       1  UNL1        0.0000
     48 H           5.8157    7.4224    7.6156 H       1  UNL1        0.0000
     49 C           7.7651    6.8762    8.3957 C.3     1  UNL1        0.0000
     50 H           8.1969    6.5601    9.3423 H       1  UNL1        0.0000
     51 H           8.2370    7.8038    8.0847 H       1  UNL1        0.0000
     52 H           7.9573    6.1109    7.6474 H       1  UNL1        0.0000
     53 O           5.9965    6.2227   11.0738 O.2     1  UNL1        0.0000
     54 O           5.6037    5.8676    8.8836 O.3     1  UNL1        0.0000
@<TRIPOS>BOND
     1    48    46    1
     2    52    49    1
     3    51    49    1
     4    24    22    1
     5    49    46    1
     6    49    50    1
     7    46    54    1
     8    46    47    1
     9    23    22    1
    10    54    45    1
    11     9     8    1
    12    32    30    1
    13    22    25    1
    14    22     3    1
    15    12    10    1
    16     1     8    1
    17     1     6    1
    18     1     4    1
    19     8     3    1
    20     8     2    1
    21    30    31    1
    22    30     3    1
    23    30    33    1
    24    11    10    1
    25    45     6    1
    26    45    53    2
    27    10    13    1
    28    10     2    1
    29     3    26    1
    30     6     5    2
    31     4     7    2
    32     5     7    1
    33     7    34    1
    34    21    18    1
    35     2    18    1
    36     2    14    1
    37    36    35    1
    38    34    35   ar
    39    34    43   ar
    40    35    37   ar
    41    18    20    1
    42    18    19    1
    43    26    29    1
    44    26    27    1
    45    26    28    1
    46    44    43    1
    47    38    37    1
    48    37    39   ar
    49    43    41   ar
    50    16    14    1
    51    14    17    1
    52    14    15    1
    53    39    41   ar
    54    39    40    1
    55    41    42    1
