@<TRIPOS>MOLECULE
1
 16 15 0 0 0
SMALL
GASTEIGER

@<TRIPOS>ATOM
      1 P           4.0813    4.0237    2.2768 P.3     1  UNL1        0.3337
      2 O           3.2919    5.4111    2.5464 O.3     1  UNL1       -0.3149
      3 C           3.7322    6.4749    3.3604 C.3     1  UNL1        0.0452
      4 O           5.5282    4.7295    1.9442 O.3     1  UNL1       -0.3149
      5 C           6.7138    3.9651    1.9018 C.3     1  UNL1        0.0452
      6 O           3.4474    3.7142    0.8305 O.3     1  UNL1       -0.3149
      7 C           3.3003    4.7027   -0.1783 C.3     1  UNL1        0.0452
      8 H           2.3448    5.2147   -0.0597 H       1  UNL1        0.0528
      9 H           3.4278    7.3999    2.8666 H       1  UNL1        0.0528
     10 H           4.8161    6.4647    3.4696 H       1  UNL1        0.0528
     11 H           3.2644    6.4194    4.3440 H       1  UNL1        0.0528
     12 H           7.5279    4.6033    2.2488 H       1  UNL1        0.0528
     13 H           6.9155    3.6345    0.8812 H       1  UNL1        0.0528
     14 H           6.6292    3.0821    2.5452 H       1  UNL1        0.0528
     15 H           3.3248    4.1818   -1.1354 H       1  UNL1        0.0528
     16 H           4.1121    5.4311   -0.1329 H       1  UNL1        0.0528
@<TRIPOS>BOND
     1    15     7    1
     2     7    16    1
     3     7     8    1
     4     7     6    1
     5     6     1    1
     6    13     5    1
     7     5     4    1
     8     5    12    1
     9     5    14    1
    10     4     1    1
    11     1     2    1
    12     2     3    1
    13     9     3    1
    14     3    10    1
    15     3    11    1
