@<TRIPOS>MOLECULE
1
 16 15 0 0 0
SMALL
GASTEIGER

@<TRIPOS>ATOM
      1 P           1.4405    2.4634    2.9250 P.3     1  UNL1        0.3337
      2 O           0.4230    1.5541    3.8703 O.3     1  UNL1       -0.3149
      3 C          -0.9649    1.4984    3.6029 C.3     1  UNL1        0.0452
      4 O           0.6775    3.9057    2.9460 O.3     1  UNL1       -0.3149
      5 C           0.6507    4.6490    4.1414 C.3     1  UNL1        0.0452
      6 O           0.8656    2.1768    1.4478 O.3     1  UNL1       -0.3149
      7 C           1.4100    1.1537    0.6403 C.3     1  UNL1        0.0452
      8 H          -1.5069    1.7508    4.5171 H       1  UNL1        0.0528
      9 H          -1.2300    0.4848    3.2952 H       1  UNL1        0.0528
     10 H          -1.2373    2.1983    2.8105 H       1  UNL1        0.0528
     11 H           0.4615    5.6878    3.8685 H       1  UNL1        0.0528
     12 H           1.5979    4.5801    4.6804 H       1  UNL1        0.0528
     13 H          -0.1473    4.2939    4.8009 H       1  UNL1        0.0528
     14 H           1.2399    1.4425   -0.3968 H       1  UNL1        0.0528
     15 H           0.9123    0.2020    0.8424 H       1  UNL1        0.0528
     16 H           2.4836    1.0384    0.8222 H       1  UNL1        0.0528
@<TRIPOS>BOND
     1    14     7    1
     2     7    16    1
     3     7    15    1
     4     7     6    1
     5     6     1    1
     6    10     3    1
     7     1     4    1
     8     1     2    1
     9     4     5    1
    10     9     3    1
    11     3     2    1
    12     3     8    1
    13    11     5    1
    14     5    12    1
    15     5    13    1
