@<TRIPOS>MOLECULE
1
 16 15 0 0 0
SMALL
GASTEIGER

@<TRIPOS>ATOM
      1 P           3.8002    2.7029    5.3224 P.3     1  UNL1        0.3337
      2 O           4.2325    4.2714    5.2820 O.3     1  UNL1       -0.3149
      3 C           4.4509    5.0018    6.4807 C.3     1  UNL1        0.0452
      4 O           4.8450    2.0830    6.4231 O.3     1  UNL1       -0.3149
      5 C           6.0468    1.4619    6.0150 C.3     1  UNL1        0.0452
      6 O           2.5737    2.8685    6.3733 O.3     1  UNL1       -0.3149
      7 C           1.8551    1.7287    6.8099 C.3     1  UNL1        0.0452
      8 H           3.5178    5.4449    6.8331 H       1  UNL1        0.0528
      9 H           5.1714    5.7879    6.2535 H       1  UNL1        0.0528
     10 H           4.8484    4.3486    7.2586 H       1  UNL1        0.0528
     11 H           6.2072    0.5966    6.6588 H       1  UNL1        0.0528
     12 H           6.8817    2.1578    6.1226 H       1  UNL1        0.0528
     13 H           5.9720    1.1374    4.9677 H       1  UNL1        0.0528
     14 H           1.1310    2.0848    7.5431 H       1  UNL1        0.0528
     15 H           2.5254    1.0070    7.2791 H       1  UNL1        0.0528
     16 H           1.3367    1.2574    5.9738 H       1  UNL1        0.0528
@<TRIPOS>BOND
     1    13     5    1
     2     2     1    1
     3     2     3    1
     4     1     6    1
     5     1     4    1
     6    16     7    1
     7     5    12    1
     8     5     4    1
     9     5    11    1
    10     9     3    1
    11     6     7    1
    12     3     8    1
    13     3    10    1
    14     7    15    1
    15     7    14    1
