@<TRIPOS>MOLECULE
1
 59 60 0 0 0
SMALL
GASTEIGER

@<TRIPOS>ATOM
      1 P          15.0036    7.3436   11.0786 P.3     1  UNL1        0.0000
      2 SI         12.9703    5.0197   10.8176 Si      1  UNL1        0.0000
      3 SI         12.3986    8.1363    9.8032 Si      1  UNL1        0.0000
      4 N          14.2940    8.2364   12.2861 N.2     1  UNL1        0.0000
      5 N          13.6606    9.6969   14.7249 N.ar    1  UNL1        0.0000
      6 C          13.6257    6.6770   10.0937 C.3     1  UNL1        0.0000
      7 H          14.0815    6.4455    9.1263 H       1  UNL1        0.0000
      8 C          12.4820    5.1356   12.6592 C.3     1  UNL1        0.0000
      9 H          12.3249    6.1622   12.9721 H       1  UNL1        0.0000
     10 H          13.2530    4.7157   13.2981 H       1  UNL1        0.0000
     11 H          11.5638    4.5883   12.8501 H       1  UNL1        0.0000
     12 C          11.4369    4.5072    9.8037 C.3     1  UNL1        0.0000
     13 H          11.0975    3.5260   10.1187 H       1  UNL1        0.0000
     14 H          11.6596    4.4489    8.7436 H       1  UNL1        0.0000
     15 H          10.6093    5.1958    9.9316 H       1  UNL1        0.0000
     16 C          14.3070    3.6744   10.5526 C.3     1  UNL1        0.0000
     17 H          13.8802    2.7923   10.0842 H       1  UNL1        0.0000
     18 H          14.7488    3.3574   11.4927 H       1  UNL1        0.0000
     19 H          15.1114    4.0239    9.9111 H       1  UNL1        0.0000
     20 C          11.1222    8.2106   11.2184 C.3     1  UNL1        0.0000
     21 H          11.6096    8.3950   12.1700 H       1  UNL1        0.0000
     22 H          10.5585    7.2881   11.3062 H       1  UNL1        0.0000
     23 H          10.4127    9.0138   11.0464 H       1  UNL1        0.0000
     24 C          11.5398    7.8119    8.1311 C.3     1  UNL1        0.0000
     25 H          10.8427    8.6124    7.9098 H       1  UNL1        0.0000
     26 H          10.9827    6.8827    8.1272 H       1  UNL1        0.0000
     27 H          12.2568    7.7708    7.3174 H       1  UNL1        0.0000
     28 C          13.2758    9.8226    9.6891 C.3     1  UNL1        0.0000
     29 H          12.5591   10.6385    9.7202 H       1  UNL1        0.0000
     30 H          13.8427    9.9273    8.7691 H       1  UNL1        0.0000
     31 H          13.9596    9.9480   10.5216 H       1  UNL1        0.0000
     32 C          15.6321    6.1068   12.2312 C.2     1  UNL1        0.0000
     33 H          16.2612    5.2678   11.9851 H       1  UNL1        0.0000
     34 C          15.4044    6.5548   13.4863 C.2     1  UNL1        0.0000
     35 C          14.5951    7.7794   13.4767 C.2     1  UNL1        0.0000
     36 C          16.0048    5.9386   14.6914 C.2     1  UNL1        0.0000
     37 C          16.4270    3.8378   15.7097 C.3     1  UNL1        0.0000
     38 H          16.6072    4.5040   16.5601 H       1  UNL1        0.0000
     39 H          17.3858    3.4312   15.3711 H       1  UNL1        0.0000
     40 C          15.4622    2.7213   16.0697 C.3     1  UNL1        0.0000
     41 H          14.5138    3.1334   16.4054 H       1  UNL1        0.0000
     42 H          15.8869    2.1174   16.8664 H       1  UNL1        0.0000
     43 H          15.2795    2.0900   15.2040 H       1  UNL1        0.0000
     44 C          14.0983    8.3923   14.6635 C.ar    1  UNL1        0.0000
     45 C          13.8374    7.8064   15.8992 C.ar    1  UNL1        0.0000
     46 H          14.0260    6.7874   16.1681 H       1  UNL1        0.0000
     47 C          13.2422    8.7744   16.7013 C.ar    1  UNL1        0.0000
     48 H          12.9092    8.6514   17.7127 H       1  UNL1        0.0000
     49 C          13.1556    9.9375   15.9564 C.ar    1  UNL1        0.0000
     50 C          13.7802   10.6701   13.6756 C.3     1  UNL1        0.0000
     51 H          12.9240   10.6188   12.9989 H       1  UNL1        0.0000
     52 H          14.6800   10.4752   13.0954 H       1  UNL1        0.0000
     53 H          13.8413   11.6690   14.1036 H       1  UNL1        0.0000
     54 C          12.6159   11.2605   16.3658 C.3     1  UNL1        0.0000
     55 H          13.4031   12.0153   16.3898 H       1  UNL1        0.0000
     56 H          12.1891   11.1832   17.3616 H       1  UNL1        0.0000
     57 H          11.8409   11.5977   15.6776 H       1  UNL1        0.0000
     58 O          16.5618    6.5340   15.5763 O.2     1  UNL1        0.0000
     59 O          15.8756    4.6053   14.6366 O.3     1  UNL1        0.0000
@<TRIPOS>BOND
     1    27    24    1
     2    25    24    1
     3    26    24    1
     4    24     3    1
     5    14    12    1
     6    30    28    1
     7     7     6    1
     8    28    29    1
     9    28     3    1
    10    28    31    1
    11     3     6    1
    12     3    20    1
    13    12    15    1
    14    12    13    1
    15    12     2    1
    16    19    16    1
    17    17    16    1
    18     6     2    1
    19     6     1    1
    20    16     2    1
    21    16    18    1
    22     2     8    1
    23    23    20    1
    24     1    32    1
    25     1     4    1
    26    20    22    1
    27    20    21    1
    28    33    32    1
    29    32    34    2
    30     4    35    2
    31     8    11    1
    32     8     9    1
    33     8    10    1
    34    51    50    1
    35    52    50    1
    36    35    34    1
    37    35    44    1
    38    34    36    1
    39    50    53    1
    40    50     5    1
    41    59    36    1
    42    59    37    1
    43    44     5   ar
    44    44    45   ar
    45    36    58    2
    46     5    49   ar
    47    43    40    1
    48    39    37    1
    49    57    54    1
    50    37    40    1
    51    37    38    1
    52    45    46    1
    53    45    47   ar
    54    49    54    1
    55    49    47   ar
    56    40    41    1
    57    40    42    1
    58    54    55    1
    59    54    56    1
    60    47    48    1
