@<TRIPOS>MOLECULE
1
 34 36 0 0 0
SMALL
GASTEIGER

@<TRIPOS>ATOM
      1 P           7.7938    5.4497   13.3667 P.3     1  UNL1       -0.0131
      2 C           7.0123    6.2168   11.8981 C.ar    1  UNL1       -0.0147
      3 C           7.0495    5.4830   10.7138 C.ar    1  UNL1       -0.0535
      4 H           7.5889    4.5460   10.6956 H       1  UNL1        0.0624
      5 C           6.4289    5.9481    9.5708 C.ar    1  UNL1       -0.0611
      6 H           6.4750    5.3682    8.6596 H       1  UNL1        0.0618
      7 C           5.7491    7.1551    9.5956 C.ar    1  UNL1       -0.0617
      8 H           5.2584    7.5205    8.7054 H       1  UNL1        0.0618
      9 C           5.7051    7.8901   10.7673 C.ar    1  UNL1       -0.0611
     10 H           5.1802    8.8339   10.7929 H       1  UNL1        0.0618
     11 C           6.3303    7.4276   11.9124 C.ar    1  UNL1       -0.0535
     12 H           6.2851    8.0168   12.8156 H       1  UNL1        0.0624
     13 C           7.8947    6.8891   14.4818 C.ar    1  UNL1       -0.0147
     14 C           9.0721    7.5726   14.7609 C.ar    1  UNL1       -0.0535
     15 H          10.0074    7.2534   14.3242 H       1  UNL1        0.0624
     16 C           9.0522    8.6692   15.6052 C.ar    1  UNL1       -0.0611
     17 H           9.9721    9.1936   15.8211 H       1  UNL1        0.0618
     18 C           7.8630    9.0970   16.1707 C.ar    1  UNL1       -0.0617
     19 H           7.8542    9.9547   16.8277 H       1  UNL1        0.0618
     20 C           6.6878    8.4150   15.8993 C.ar    1  UNL1       -0.0611
     21 H           5.7596    8.7410   16.3464 H       1  UNL1        0.0618
     22 C           6.7040    7.3122   15.0671 C.ar    1  UNL1       -0.0535
     23 H           5.8023    6.7519   14.8745 H       1  UNL1        0.0624
     24 C           9.5431    5.3060   12.8518 C.ar    1  UNL1       -0.0147
     25 C          10.0780    5.8440   11.6880 C.ar    1  UNL1       -0.0535
     26 H           9.4464    6.3905   11.0030 H       1  UNL1        0.0624
     27 C          11.4242    5.6885   11.4071 C.ar    1  UNL1       -0.0611
     28 H          11.8319    6.1080   10.4986 H       1  UNL1        0.0618
     29 C          12.2502    5.0080   12.2856 C.ar    1  UNL1       -0.0617
     30 H          13.3016    4.8958   12.0637 H       1  UNL1        0.0618
     31 C          11.7257    4.4744   13.4522 C.ar    1  UNL1       -0.0611
     32 H          12.3658    3.9439   14.1427 H       1  UNL1        0.0618
     33 C          10.3795    4.6174   13.7281 C.ar    1  UNL1       -0.0535
     34 H           9.9606    4.1977   14.6334 H       1  UNL1        0.0624
@<TRIPOS>BOND
     1     6     5    1
     2     8     7    1
     3     5     7   ar
     4     5     3   ar
     5     7     9   ar
     6    28    27    1
     7     4     3    1
     8     3     2   ar
     9     9    10    1
    10     9    11   ar
    11    26    25    1
    12    27    25   ar
    13    27    29   ar
    14    25    24   ar
    15     2    11   ar
    16     2     1    1
    17    11    12    1
    18    30    29    1
    19    29    31   ar
    20    24     1    1
    21    24    33   ar
    22     1    13    1
    23    31    33   ar
    24    31    32    1
    25    33    34    1
    26    15    14    1
    27    13    14   ar
    28    13    22   ar
    29    14    16   ar
    30    23    22    1
    31    22    20   ar
    32    16    17    1
    33    16    18   ar
    34    20    18   ar
    35    20    21    1
    36    18    19    1
