@<TRIPOS>MOLECULE
1
 34 36 0 0 0
SMALL
GASTEIGER

@<TRIPOS>ATOM
      1 P           7.4960    2.0950   12.5611 P.3     1  UNL1       -0.0131
      2 C           8.6333    2.2134   11.1337 C.ar    1  UNL1       -0.0147
      3 C           8.0987    2.3331    9.8505 C.ar    1  UNL1       -0.0535
      4 H           7.0282    2.2657    9.7168 H       1  UNL1        0.0624
      5 C           8.9241    2.5293    8.7595 C.ar    1  UNL1       -0.0611
      6 H           8.4984    2.6099    7.7694 H       1  UNL1        0.0618
      7 C          10.2952    2.6273    8.9347 C.ar    1  UNL1       -0.0617
      8 H          10.9403    2.7836    8.0828 H       1  UNL1        0.0618
      9 C          10.8328    2.5280   10.2064 C.ar    1  UNL1       -0.0611
     10 H          11.9000    2.6090   10.3512 H       1  UNL1        0.0618
     11 C          10.0093    2.3286   11.2998 C.ar    1  UNL1       -0.0535
     12 H          10.4396    2.2597   12.2876 H       1  UNL1        0.0624
     13 C           8.5806    1.3406   13.8280 C.ar    1  UNL1       -0.0147
     14 C           9.3549    0.2135   13.5678 C.ar    1  UNL1       -0.0535
     15 H           9.3490   -0.2273   12.5800 H       1  UNL1        0.0624
     16 C          10.1295   -0.3352   14.5725 C.ar    1  UNL1       -0.0611
     17 H          10.7349   -1.2068   14.3690 H       1  UNL1        0.0618
     18 C          10.1289    0.2258   15.8411 C.ar    1  UNL1       -0.0617
     19 H          10.7380   -0.2081   16.6208 H       1  UNL1        0.0618
     20 C           9.3418    1.3331   16.1100 C.ar    1  UNL1       -0.0611
     21 H           9.3281    1.7660   17.0994 H       1  UNL1        0.0618
     22 C           8.5669    1.8862   15.1057 C.ar    1  UNL1       -0.0535
     23 H           7.9344    2.7487   15.3099 H       1  UNL1        0.0624
     24 C           6.5537    0.5639   12.1939 C.ar    1  UNL1       -0.0147
     25 C           6.7022   -0.2476   11.0776 C.ar    1  UNL1       -0.0535
     26 H           7.4117    0.0055   10.3035 H       1  UNL1        0.0624
     27 C           5.9406   -1.3973   10.9527 C.ar    1  UNL1       -0.0611
     28 H           6.0560   -2.0193   10.0766 H       1  UNL1        0.0618
     29 C           5.0417   -1.7566   11.9413 C.ar    1  UNL1       -0.0617
     30 H           4.4520   -2.6553   11.8353 H       1  UNL1        0.0618
     31 C           4.9062   -0.9634   13.0693 C.ar    1  UNL1       -0.0611
     32 H           4.2145   -1.2418   13.8509 H       1  UNL1        0.0618
     33 C           5.6560    0.1888   13.1894 C.ar    1  UNL1       -0.0535
     34 H           5.5547    0.8200   14.0645 H       1  UNL1        0.0624
@<TRIPOS>BOND
     1     6     5    1
     2     8     7    1
     3     5     7   ar
     4     5     3   ar
     5     7     9   ar
     6     4     3    1
     7     3     2   ar
     8    28    27    1
     9     9    10    1
    10     9    11   ar
    11    26    25    1
    12    27    25   ar
    13    27    29   ar
    14    25    24   ar
    15     2    11   ar
    16     2     1    1
    17    11    12    1
    18    30    29    1
    19    29    31   ar
    20    24     1    1
    21    24    33   ar
    22     1    13    1
    23    15    14    1
    24    31    33   ar
    25    31    32    1
    26    33    34    1
    27    14    13   ar
    28    14    16   ar
    29    13    22   ar
    30    17    16    1
    31    16    18   ar
    32    22    23    1
    33    22    20   ar
    34    18    20   ar
    35    18    19    1
    36    20    21    1
