@<TRIPOS>MOLECULE
1
 34 36 0 0 0
SMALL
GASTEIGER

@<TRIPOS>ATOM
      1 P           4.3577    3.3383   13.3079 P.3     1  UNL1       -0.0131
      2 C           3.8797    2.4174   11.8059 C.ar    1  UNL1       -0.0147
      3 C           4.5555    2.7498   10.6344 C.ar    1  UNL1       -0.0535
      4 H           5.2804    3.5544   10.6656 H       1  UNL1        0.0624
      5 C           4.3022    2.0700    9.4584 C.ar    1  UNL1       -0.0611
      6 H           4.8143    2.3475    8.5472 H       1  UNL1        0.0618
      7 C           3.3915    1.0257    9.4468 C.ar    1  UNL1       -0.0617
      8 H           3.1991    0.4851    8.5318 H       1  UNL1        0.0618
      9 C           2.7350    0.6735   10.6131 C.ar    1  UNL1       -0.0611
     10 H           2.0321   -0.1469   10.6089 H       1  UNL1        0.0618
     11 C           2.9738    1.3651   11.7877 C.ar    1  UNL1       -0.0535
     12 H           2.4565    1.0809   12.6923 H       1  UNL1        0.0624
     13 C           3.1171    2.7676   14.5157 C.ar    1  UNL1       -0.0147
     14 C           1.7628    3.0276   14.3189 C.ar    1  UNL1       -0.0535
     15 H           1.4442    3.5814   13.4459 H       1  UNL1        0.0624
     16 C           0.8318    2.5806   15.2370 C.ar    1  UNL1       -0.0611
     17 H          -0.2181    2.7846   15.0819 H       1  UNL1        0.0618
     18 C           1.2422    1.8739   16.3573 C.ar    1  UNL1       -0.0617
     19 H           0.5112    1.5286   17.0741 H       1  UNL1        0.0618
     20 C           2.5877    1.6198   16.5592 C.ar    1  UNL1       -0.0611
     21 H           2.9088    1.0763   17.4362 H       1  UNL1        0.0618
     22 C           3.5227    2.0657   15.6413 C.ar    1  UNL1       -0.0535
     23 H           4.5763    1.9038   15.8098 H       1  UNL1        0.0624
     24 C           3.6577    4.9979   12.9794 C.ar    1  UNL1       -0.0147
     25 C           3.2546    5.4682   11.7365 C.ar    1  UNL1       -0.0535
     26 H           3.3131    4.8353   10.8633 H       1  UNL1        0.0624
     27 C           2.7575    6.7544   11.6105 C.ar    1  UNL1       -0.0611
     28 H           2.4408    7.1097   10.6402 H       1  UNL1        0.0618
     29 C           2.6611    7.5809   12.7159 C.ar    1  UNL1       -0.0617
     30 H           2.2733    8.5838   12.6105 H       1  UNL1        0.0618
     31 C           3.0590    7.1147   13.9591 C.ar    1  UNL1       -0.0611
     32 H           2.9810    7.7541   14.8268 H       1  UNL1        0.0618
     33 C           3.5528    5.8318   14.0912 C.ar    1  UNL1       -0.0535
     34 H           3.8708    5.4541   15.0525 H       1  UNL1        0.0624
@<TRIPOS>BOND
     1     8     7    1
     2     6     5    1
     3     7     5   ar
     4     7     9   ar
     5     5     3   ar
     6    10     9    1
     7     9    11   ar
     8     3     4    1
     9     3     2   ar
    10    28    27    1
    11    26    25    1
    12    27    25   ar
    13    27    29   ar
    14    25    24   ar
    15    11     2   ar
    16    11    12    1
    17     2     1    1
    18    30    29    1
    19    29    31   ar
    20    24     1    1
    21    24    33   ar
    22     1    13    1
    23    15    14    1
    24    31    33   ar
    25    31    32    1
    26    33    34    1
    27    14    13   ar
    28    14    16   ar
    29    13    22   ar
    30    17    16    1
    31    16    18   ar
    32    22    23    1
    33    22    20   ar
    34    18    20   ar
    35    18    19    1
    36    20    21    1
