@<TRIPOS>MOLECULE
1
 22 21 0 0 0
SMALL
GASTEIGER

@<TRIPOS>ATOM
      1 P          -3.1793    5.9079    4.9370 P.3     1  UNL1       -0.1067
      2 C          -4.3189    6.9184    3.8740 C.3     1  UNL1       -0.0351
      3 H          -4.8665    7.6375    4.4872 H       1  UNL1        0.0310
      4 H          -3.6950    7.4832    3.1789 H       1  UNL1        0.0310
      5 C          -5.2785    6.0311    3.0949 C.3     1  UNL1       -0.0613
      6 H          -5.8191    6.6066    2.3455 H       1  UNL1        0.0233
      7 H          -6.0042    5.5648    3.7574 H       1  UNL1        0.0233
      8 H          -4.7254    5.2358    2.5955 H       1  UNL1        0.0233
      9 C          -4.3307    5.4178    6.3136 C.3     1  UNL1       -0.0351
     10 H          -5.0936    4.7927    5.8446 H       1  UNL1        0.0310
     11 H          -3.7519    4.7663    6.9749 H       1  UNL1        0.0310
     12 C          -5.0067    6.5109    7.1324 C.3     1  UNL1       -0.0613
     13 H          -5.7091    6.0539    7.8283 H       1  UNL1        0.0233
     14 H          -5.5668    7.1957    6.5005 H       1  UNL1        0.0233
     15 H          -4.2890    7.0830    7.7143 H       1  UNL1        0.0233
     16 C          -2.2681    7.3026    5.7569 C.3     1  UNL1       -0.0351
     17 H          -1.6655    7.7924    4.9888 H       1  UNL1        0.0310
     18 H          -2.9762    8.0397    6.1412 H       1  UNL1        0.0310
     19 C          -1.3646    6.7790    6.8649 C.3     1  UNL1       -0.0613
     20 H          -0.7052    7.5622    7.2361 H       1  UNL1        0.0233
     21 H          -0.7555    5.9601    6.4826 H       1  UNL1        0.0233
     22 H          -1.9506    6.4045    7.7008 H       1  UNL1        0.0233
@<TRIPOS>BOND
     1     6     5    1
     2     8     5    1
     3     5     7    1
     4     5     2    1
     5     4     2    1
     6     2     3    1
     7     2     1    1
     8     1    16    1
     9     1     9    1
    10    17    16    1
    11    16    18    1
    12    16    19    1
    13    10     9    1
    14     9    11    1
    15     9    12    1
    16    21    19    1
    17    14    12    1
    18    19    20    1
    19    19    22    1
    20    12    15    1
    21    12    13    1
