@<TRIPOS>MOLECULE
1
 22 21 0 0 0
SMALL
GASTEIGER

@<TRIPOS>ATOM
      1 P          -0.3590    5.5035    3.0615 P.3     1  UNL1       -0.1067
      2 C           0.9509    6.4135    4.0139 C.3     1  UNL1       -0.0351
      3 H           1.5134    7.0424    3.3201 H       1  UNL1        0.0310
      4 H           0.4499    7.0739    4.7226 H       1  UNL1        0.0310
      5 C           1.8823    5.4712    4.7606 C.3     1  UNL1       -0.0613
      6 H           2.5439    6.0293    5.4216 H       1  UNL1        0.0233
      7 H           2.4937    4.8938    4.0725 H       1  UNL1        0.0233
      8 H           1.3009    4.7712    5.3526 H       1  UNL1        0.0233
      9 C           0.6631    4.5928    1.8244 C.3     1  UNL1       -0.0351
     10 H           1.1690    3.8132    2.3947 H       1  UNL1        0.0310
     11 H          -0.0456    4.0841    1.1720 H       1  UNL1        0.0310
     12 C           1.6717    5.3808    0.9983 C.3     1  UNL1       -0.0613
     13 H           2.2134    4.6931    0.3511 H       1  UNL1        0.0233
     14 H           2.4021    5.8835    1.6268 H       1  UNL1        0.0233
     15 H           1.1881    6.1209    0.3651 H       1  UNL1        0.0233
     16 C          -0.9819    6.9418    2.0632 C.3     1  UNL1       -0.0351
     17 H          -1.4544    7.6399    2.7576 H       1  UNL1        0.0310
     18 H          -0.1406    7.4587    1.5979 H       1  UNL1        0.0310
     19 C          -1.9888    6.4918    1.0162 C.3     1  UNL1       -0.0613
     20 H          -2.4974    7.3433    0.5662 H       1  UNL1        0.0233
     21 H          -2.7304    5.8459    1.4865 H       1  UNL1        0.0233
     22 H          -1.4956    5.9323    0.2253 H       1  UNL1        0.0233
@<TRIPOS>BOND
     1    22    19    1
     2    13    12    1
     3    15    12    1
     4    20    19    1
     5    12    14    1
     6    12     9    1
     7    19    21    1
     8    19    16    1
     9    11     9    1
    10    18    16    1
    11     9    10    1
    12     9     1    1
    13    16    17    1
    14    16     1    1
    15     1     2    1
    16     3     2    1
    17     2     4    1
    18     2     5    1
    19     7     5    1
    20     5     8    1
    21     5     6    1
