@<TRIPOS>MOLECULE
1
 34 36 0 0 0
SMALL
GASTEIGER

@<TRIPOS>ATOM
      1 P          -0.2279    5.9985    6.0134 P.3     1  UNL1       -0.0131
      2 C          -1.5566    6.5881    7.1288 C.ar    1  UNL1       -0.0147
      3 C          -2.2542    5.6002    7.8183 C.ar    1  UNL1       -0.0535
      4 C          -3.1990    5.9444    8.7669 C.ar    1  UNL1       -0.0611
      5 C          -3.4551    7.2788    9.0379 C.ar    1  UNL1       -0.0617
      6 C          -2.7521    8.2646    8.3662 C.ar    1  UNL1       -0.0611
      7 C          -1.7987    7.9246    7.4221 C.ar    1  UNL1       -0.0535
      8 C           0.2373    7.4777    5.0639 C.ar    1  UNL1       -0.0147
      9 C          -0.7643    8.2354    4.4610 C.ar    1  UNL1       -0.0535
     10 C          -0.4348    9.2918    3.6328 C.ar    1  UNL1       -0.0611
     11 C           0.8957    9.5892    3.3837 C.ar    1  UNL1       -0.0617
     12 C           1.8949    8.8209    3.9580 C.ar    1  UNL1       -0.0611
     13 C           1.5701    7.7644    4.7901 C.ar    1  UNL1       -0.0535
     14 C           1.0337    5.8869    7.3275 C.ar    1  UNL1       -0.0147
     15 C           1.5340    7.0628    7.8806 C.ar    1  UNL1       -0.0535
     16 C           2.4503    7.0056    8.9135 C.ar    1  UNL1       -0.0611
     17 C           2.8619    5.7796    9.4111 C.ar    1  UNL1       -0.0617
     18 C           2.3457    4.6107    8.8791 C.ar    1  UNL1       -0.0611
     19 C           1.4293    4.6603    7.8435 C.ar    1  UNL1       -0.0535
     20 H          -2.0435    4.5616    7.6017 H       1  UNL1        0.0624
     21 H          -3.7352    5.1716    9.2976 H       1  UNL1        0.0618
     22 H          -4.1950    7.5516    9.7763 H       1  UNL1        0.0618
     23 H          -2.9405    9.3064    8.5835 H       1  UNL1        0.0618
     24 H          -1.2483    8.7057    6.9173 H       1  UNL1        0.0624
     25 H          -1.8026    7.9865    4.6413 H       1  UNL1        0.0624
     26 H          -1.2179    9.8793    3.1743 H       1  UNL1        0.0618
     27 H           1.1517   10.4144    2.7351 H       1  UNL1        0.0618
     28 H           2.9320    9.0423    3.7526 H       1  UNL1        0.0618
     29 H           2.3457    7.1471    5.2201 H       1  UNL1        0.0624
     30 H           1.2112    8.0219    7.4982 H       1  UNL1        0.0624
     31 H           2.8445    7.9210    9.3315 H       1  UNL1        0.0618
     32 H           3.5826    5.7386   10.2151 H       1  UNL1        0.0618
     33 H           2.6591    3.6533    9.2686 H       1  UNL1        0.0618
     34 H           1.0309    3.7472    7.4273 H       1  UNL1        0.0624
@<TRIPOS>BOND
     1    27    11    1
     2    26    10    1
     3    11    10   ar
     4    11    12   ar
     5    10     9   ar
     6    28    12    1
     7    12    13   ar
     8     9    25    1
     9     9     8   ar
    10    13     8   ar
    11    13    29    1
    12     8     1    1
    13     1     2    1
    14     1    14    1
    15    24     7    1
    16     2     7   ar
    17     2     3   ar
    18    14    19   ar
    19    14    15   ar
    20     7     6   ar
    21    34    19    1
    22    30    15    1
    23    20     3    1
    24     3     4   ar
    25    19    18   ar
    26    15    16   ar
    27     6    23    1
    28     6     5   ar
    29     4     5   ar
    30     4    21    1
    31    18    33    1
    32    18    17   ar
    33    16    31    1
    34    16    17   ar
    35     5    22    1
    36    17    32    1
