@<TRIPOS>MOLECULE
1
 13 12 0 0 0
SMALL
GASTEIGER

@<TRIPOS>ATOM
      1 P           3.2824   13.7874   12.2598 P.3     1  UNL1       -0.1154
      2 C           1.8703   13.5552   11.1112 C.3     1  UNL1       -0.0447
      3 C           3.1547   15.6084   12.5293 C.3     1  UNL1       -0.0447
      4 C           4.6638   13.7356   11.0571 C.3     1  UNL1       -0.0447
      5 H           0.9399   13.7484   11.6411 H       1  UNL1        0.0277
      6 H           1.8723   12.5218   10.7727 H       1  UNL1        0.0277
      7 H           1.9516   14.2279   10.2565 H       1  UNL1        0.0277
      8 H           4.0809   15.9911   12.9581 H       1  UNL1        0.0277
      9 H           2.3362   15.8137   13.2196 H       1  UNL1        0.0277
     10 H           2.9651   16.1174   11.5833 H       1  UNL1        0.0277
     11 H           4.5339   14.5028   10.2921 H       1  UNL1        0.0277
     12 H           4.6796   12.7500   10.5922 H       1  UNL1        0.0277
     13 H           5.6089   13.8944   11.5738 H       1  UNL1        0.0277
@<TRIPOS>BOND
     1     7     2    1
     2    11     4    1
     3    12     4    1
     4     6     2    1
     5     4    13    1
     6     4     1    1
     7     2     5    1
     8     2     1    1
     9    10     3    1
    10     1     3    1
    11     3     8    1
    12     3     9    1
