@<TRIPOS>MOLECULE
1
 13 12 0 0 0
SMALL
GASTEIGER

@<TRIPOS>ATOM
      1 P           4.8224   11.3544   15.8108 P.3     1  UNL1       -0.1154
      2 C           5.2487   12.3111   17.3304 C.3     1  UNL1       -0.0447
      3 C           4.2086    9.8073   16.5840 C.3     1  UNL1       -0.0447
      4 C           6.4919   10.8014   15.2980 C.3     1  UNL1       -0.0447
      5 H           4.3391   12.7278   17.7638 H       1  UNL1        0.0277
      6 H           5.9254   13.1285   17.0812 H       1  UNL1        0.0277
      7 H           5.7317   11.6606   18.0607 H       1  UNL1        0.0277
      8 H           3.9475    9.1133   15.7881 H       1  UNL1        0.0277
      9 H           3.3154   10.0241   17.1665 H       1  UNL1        0.0277
     10 H           4.9676    9.3673   17.2321 H       1  UNL1        0.0277
     11 H           7.0255   11.6273   14.8305 H       1  UNL1        0.0277
     12 H           6.3802    9.9988   14.5692 H       1  UNL1        0.0277
     13 H           7.0587   10.4433   16.1588 H       1  UNL1        0.0277
@<TRIPOS>BOND
     1    12     4    1
     2    11     4    1
     3     4     1    1
     4     4    13    1
     5     8     3    1
     6     1     3    1
     7     1     2    1
     8     3     9    1
     9     3    10    1
    10     6     2    1
    11     2     5    1
    12     2     7    1
