@<TRIPOS>MOLECULE
1
 40 39 0 0 0
SMALL
GASTEIGER

@<TRIPOS>ATOM
      1 P          -5.3930    5.5461    2.4199 P.3     1  UNL1        0.0000
      2 SI         -4.5589    4.5854    4.3232 Si      1  UNL1        0.0000
      3 SI         -6.8150    3.9774    1.5615 Si      1  UNL1        0.0000
      4 SI         -6.7184    7.2890    3.0712 Si      1  UNL1        0.0000
      5 C          -4.1008    2.7719    3.9349 C.3     1  UNL1        0.0000
      6 H          -3.4909    2.3544    4.7306 H       1  UNL1        0.0000
      7 H          -3.5283    2.7048    3.0156 H       1  UNL1        0.0000
      8 H          -4.9759    2.1395    3.8288 H       1  UNL1        0.0000
      9 C          -2.9763    5.5203    4.8291 C.3     1  UNL1        0.0000
     10 H          -2.5943    5.1593    5.7797 H       1  UNL1        0.0000
     11 H          -3.1479    6.5875    4.9283 H       1  UNL1        0.0000
     12 H          -2.1951    5.3806    4.0870 H       1  UNL1        0.0000
     13 C          -5.7997    4.6327    5.7776 C.3     1  UNL1        0.0000
     14 H          -5.3961    4.0844    6.6231 H       1  UNL1        0.0000
     15 H          -6.7492    4.1788    5.5174 H       1  UNL1        0.0000
     16 H          -5.9908    5.6478    6.1086 H       1  UNL1        0.0000
     17 C          -7.8923    3.1488    2.9069 C.3     1  UNL1        0.0000
     18 H          -8.5837    2.4490    2.4481 H       1  UNL1        0.0000
     19 H          -8.4790    3.8754    3.4570 H       1  UNL1        0.0000
     20 H          -7.2934    2.5958    3.6218 H       1  UNL1        0.0000
     21 C          -5.7515    2.6590    0.6801 C.3     1  UNL1        0.0000
     22 H          -6.2874    2.2188   -0.1555 H       1  UNL1        0.0000
     23 H          -5.4663    1.8513    1.3463 H       1  UNL1        0.0000
     24 H          -4.8393    3.1029    0.2877 H       1  UNL1        0.0000
     25 C          -7.9560    4.8533    0.3064 C.3     1  UNL1        0.0000
     26 H          -8.6046    4.1375   -0.1900 H       1  UNL1        0.0000
     27 H          -7.3759    5.3542   -0.4624 H       1  UNL1        0.0000
     28 H          -8.5879    5.5957    0.7829 H       1  UNL1        0.0000
     29 C          -5.5975    8.4035    4.1408 C.3     1  UNL1        0.0000
     30 H          -6.0655    9.3627    4.3409 H       1  UNL1        0.0000
     31 H          -4.6591    8.5957    3.6266 H       1  UNL1        0.0000
     32 H          -5.3648    7.9454    5.0972 H       1  UNL1        0.0000
     33 C          -8.2817    6.7710    4.0434 C.3     1  UNL1        0.0000
     34 H          -8.7976    7.6555    4.4043 H       1  UNL1        0.0000
     35 H          -8.0512    6.1534    4.9028 H       1  UNL1        0.0000
     36 H          -8.9753    6.2241    3.4131 H       1  UNL1        0.0000
     37 C          -7.2837    8.1980    1.4868 C.3     1  UNL1        0.0000
     38 H          -8.3658    8.2651    1.4238 H       1  UNL1        0.0000
     39 H          -6.9281    7.6864    0.5963 H       1  UNL1        0.0000
     40 H          -6.8936    9.2106    1.4538 H       1  UNL1        0.0000
@<TRIPOS>BOND
     1    27    25    1
     2    26    25    1
     3    22    21    1
     4    24    21    1
     5    25    28    1
     6    25     3    1
     7    39    37    1
     8    21    23    1
     9    21     3    1
    10    38    37    1
    11    40    37    1
    12    37     4    1
    13     3     1    1
    14     3    17    1
    15     1     4    1
    16     1     2    1
    17    18    17    1
    18    17    19    1
    19    17    20    1
    20     7     5    1
    21     4    33    1
    22     4    29    1
    23    36    33    1
    24    31    29    1
    25     8     5    1
    26     5     2    1
    27     5     6    1
    28    33    34    1
    29    33    35    1
    30    12     9    1
    31    29    30    1
    32    29    32    1
    33     2     9    1
    34     2    13    1
    35     9    11    1
    36     9    10    1
    37    15    13    1
    38    13    16    1
    39    13    14    1
