@<TRIPOS>MOLECULE
1
 40 39 0 0 0
SMALL
GASTEIGER

@<TRIPOS>ATOM
      1 P          -1.7361    7.2250    2.1346 P.3     1  UNL1        0.0000
      2 SI         -2.4000    9.2390    2.9796 Si      1  UNL1        0.0000
      3 SI         -2.9757    7.0000    0.2270 Si      1  UNL1        0.0000
      4 SI          0.4330    7.5337    1.4993 Si      1  UNL1        0.0000
      5 C          -2.5726   10.5779    1.6258 C.3     1  UNL1        0.0000
      6 H          -2.8320   11.5294    2.0793 H       1  UNL1        0.0000
      7 H          -3.3488   10.3351    0.9089 H       1  UNL1        0.0000
      8 H          -1.6475   10.7178    1.0786 H       1  UNL1        0.0000
      9 C          -1.0857    9.8326    4.2316 C.3     1  UNL1        0.0000
     10 H          -1.4178   10.7375    4.7321 H       1  UNL1        0.0000
     11 H          -0.1404   10.0523    3.7463 H       1  UNL1        0.0000
     12 H          -0.9005    9.0866    4.9980 H       1  UNL1        0.0000
     13 C          -4.0842    8.9948    3.8493 C.3     1  UNL1        0.0000
     14 H          -4.1876    9.6695    4.6938 H       1  UNL1        0.0000
     15 H          -4.1854    7.9799    4.2279 H       1  UNL1        0.0000
     16 H          -4.9171    9.1807    3.1790 H       1  UNL1        0.0000
     17 C          -4.7760    7.5308    0.5873 C.3     1  UNL1        0.0000
     18 H          -5.4316    7.2068   -0.2159 H       1  UNL1        0.0000
     19 H          -4.8767    8.6072    0.6763 H       1  UNL1        0.0000
     20 H          -5.1425    7.0861    1.5066 H       1  UNL1        0.0000
     21 C          -2.9844    5.1704   -0.3132 C.3     1  UNL1        0.0000
     22 H          -3.4760    5.0560   -1.2752 H       1  UNL1        0.0000
     23 H          -3.5220    4.5547    0.4034 H       1  UNL1        0.0000
     24 H          -1.9801    4.7693   -0.4089 H       1  UNL1        0.0000
     25 C          -2.2974    8.0449   -1.2230 C.3     1  UNL1        0.0000
     26 H          -2.9771    7.9834   -2.0672 H       1  UNL1        0.0000
     27 H          -1.3298    7.6860   -1.5570 H       1  UNL1        0.0000
     28 H          -2.1976    9.0917   -0.9601 H       1  UNL1        0.0000
     29 C           0.8735    5.9832    0.4760 C.3     1  UNL1        0.0000
     30 H           1.9401    5.9258    0.2809 H       1  UNL1        0.0000
     31 H           0.3621    5.9760   -0.4818 H       1  UNL1        0.0000
     32 H           0.5874    5.0810    1.0122 H       1  UNL1        0.0000
     33 C           0.7673    9.1192    0.4849 C.3     1  UNL1        0.0000
     34 H           1.7986    9.1221    0.1454 H       1  UNL1        0.0000
     35 H           0.6206   10.0101    1.0867 H       1  UNL1        0.0000
     36 H           0.1351    9.1976   -0.3906 H       1  UNL1        0.0000
     37 C           1.4964    7.6460    3.0861 C.3     1  UNL1        0.0000
     38 H           2.0234    8.5935    3.1470 H       1  UNL1        0.0000
     39 H           2.2418    6.8571    3.1187 H       1  UNL1        0.0000
     40 H           0.8816    7.5499    3.9779 H       1  UNL1        0.0000
@<TRIPOS>BOND
     1    26    25    1
     2    27    25    1
     3    22    21    1
     4    25    28    1
     5    25     3    1
     6    31    29    1
     7    24    21    1
     8    36    33    1
     9    21     3    1
    10    21    23    1
    11    18    17    1
    12    34    33    1
    13     3    17    1
    14     3     1    1
    15    30    29    1
    16    29    32    1
    17    29     4    1
    18    33    35    1
    19    33     4    1
    20    17    19    1
    21    17    20    1
    22     7     5    1
    23     8     5    1
    24     4     1    1
    25     4    37    1
    26     5     6    1
    27     5     2    1
    28     1     2    1
    29     2    13    1
    30     2     9    1
    31    37    39    1
    32    37    38    1
    33    37    40    1
    34    16    13    1
    35    11     9    1
    36    13    15    1
    37    13    14    1
    38     9    10    1
    39     9    12    1
