@<TRIPOS>MOLECULE
1
 40 39 0 0 0
SMALL
GASTEIGER

@<TRIPOS>ATOM
      1 P           2.9164    4.5609    2.1043 P.3     1  UNL1        0.0000
      2 SI          2.2298    6.5481    2.9933 Si      1  UNL1        0.0000
      3 SI          1.6889    4.3193    0.1910 Si      1  UNL1        0.0000
      4 SI          5.0967    4.8612    1.5092 Si      1  UNL1        0.0000
      5 C           2.0068    7.8914    1.6516 C.3     1  UNL1        0.0000
      6 H           1.7323    8.8348    2.1128 H       1  UNL1        0.0000
      7 H           1.2277    7.6352    0.9425 H       1  UNL1        0.0000
      8 H           2.9219    8.0546    1.0932 H       1  UNL1        0.0000
      9 C           0.5737    6.2491    3.8944 C.3     1  UNL1        0.0000
     10 H           0.3592    7.0506    4.5952 H       1  UNL1        0.0000
     11 H           0.6024    5.3192    4.4568 H       1  UNL1        0.0000
     12 H          -0.2595    6.1875    3.2020 H       1  UNL1        0.0000
     13 C           3.5502    7.1619    4.2284 C.3     1  UNL1        0.0000
     14 H           3.2117    8.0630    4.7314 H       1  UNL1        0.0000
     15 H           4.4868    7.3936    3.7319 H       1  UNL1        0.0000
     16 H           3.7551    6.4204    4.9932 H       1  UNL1        0.0000
     17 C          -0.1276    4.8017    0.5358 C.3     1  UNL1        0.0000
     18 H          -0.7588    4.5141   -0.3002 H       1  UNL1        0.0000
     19 H          -0.2494    5.8694    0.6842 H       1  UNL1        0.0000
     20 H          -0.5072    4.2977    1.4182 H       1  UNL1        0.0000
     21 C           2.3644    5.3935   -1.2385 C.3     1  UNL1        0.0000
     22 H           1.6878    5.3475   -2.0861 H       1  UNL1        0.0000
     23 H           3.3337    5.0427   -1.5764 H       1  UNL1        0.0000
     24 H           2.4628    6.4350   -0.9547 H       1  UNL1        0.0000
     25 C           1.7274    2.4929   -0.3562 C.3     1  UNL1        0.0000
     26 H           1.2600    2.3703   -1.3291 H       1  UNL1        0.0000
     27 H           1.1868    1.8664    0.3478 H       1  UNL1        0.0000
     28 H           2.7411    2.1120   -0.4291 H       1  UNL1        0.0000
     29 C           5.4392    6.4506    0.5049 C.3     1  UNL1        0.0000
     30 H           6.4889    6.4918    0.2312 H       1  UNL1        0.0000
     31 H           5.2188    7.3401    1.0859 H       1  UNL1        0.0000
     32 H           4.8610    6.4969   -0.4097 H       1  UNL1        0.0000
     33 C           5.5487    3.3113    0.4906 C.3     1  UNL1        0.0000
     34 H           6.6213    3.2300    0.3433 H       1  UNL1        0.0000
     35 H           5.0818    3.3254   -0.4896 H       1  UNL1        0.0000
     36 H           5.2166    2.4124    1.0042 H       1  UNL1        0.0000
     37 C           6.1213    4.9623    3.1212 C.3     1  UNL1        0.0000
     38 H           6.9051    4.2114    3.1387 H       1  UNL1        0.0000
     39 H           5.4932    4.7972    3.9930 H       1  UNL1        0.0000
     40 H           6.5981    5.9314    3.2334 H       1  UNL1        0.0000
@<TRIPOS>BOND
     1    22    21    1
     2    23    21    1
     3    26    25    1
     4    21    24    1
     5    21     3    1
     6    35    33    1
     7    28    25    1
     8    32    29    1
     9    25     3    1
    10    25    27    1
    11    18    17    1
    12     3    17    1
    13     3     1    1
    14    30    29    1
    15    34    33    1
    16    33    36    1
    17    33     4    1
    18    29    31    1
    19    29     4    1
    20    17    19    1
    21    17    20    1
    22     7     5    1
    23     8     5    1
    24     4     1    1
    25     4    37    1
    26     5     6    1
    27     5     2    1
    28     1     2    1
    29     2     9    1
    30     2    13    1
    31    37    38    1
    32    37    40    1
    33    37    39    1
    34    12     9    1
    35    15    13    1
    36     9    11    1
    37     9    10    1
    38    13    14    1
    39    13    16    1
