@<TRIPOS>MOLECULE
1
 13 12 0 0 0
SMALL
GASTEIGER

@<TRIPOS>ATOM
      1 P          -0.3334    2.2856    5.8879 P.3     1  UNL1       -0.1154
      2 C          -0.3011    1.7419    4.1440 C.3     1  UNL1       -0.0447
      3 H           0.6994    1.8858    3.7397 H       1  UNL1        0.0277
      4 H          -0.5777    0.6891    4.0759 H       1  UNL1        0.0277
      5 H          -1.0030    2.3455    3.5698 H       1  UNL1        0.0277
      6 C          -1.9727    1.6475    6.4074 C.3     1  UNL1       -0.0447
      7 H          -2.1025    1.7849    7.4792 H       1  UNL1        0.0277
      8 H          -2.7455    2.2105    5.8861 H       1  UNL1        0.0277
      9 H          -2.0661    0.5886    6.1655 H       1  UNL1        0.0277
     10 C           0.7887    1.0629    6.6650 C.3     1  UNL1       -0.0447
     11 H           0.7294    1.1523    7.7485 H       1  UNL1        0.0277
     12 H           0.5201    0.0485    6.3701 H       1  UNL1        0.0277
     13 H           1.8074    1.2801    6.3462 H       1  UNL1        0.0277
@<TRIPOS>BOND
     1     5     2    1
     2     3     2    1
     3     4     2    1
     4     2     1    1
     5     8     6    1
     6     1     6    1
     7     1    10    1
     8     9     6    1
     9    13    10    1
    10    12    10    1
    11     6     7    1
    12    10    11    1
