@<TRIPOS>MOLECULE
1
 13 12 0 0 0
SMALL
GASTEIGER

@<TRIPOS>ATOM
      1 P          10.8255    2.5578    2.3914 P.3     1  UNL1       -0.1154
      2 C          10.2401    4.3029    2.5323 C.3     1  UNL1       -0.0447
      3 C           9.8291    2.1153    0.8949 C.3     1  UNL1       -0.0447
      4 C           9.6414    1.8320    3.6158 C.3     1  UNL1       -0.0447
      5 H          10.5643    4.7143    3.4849 H       1  UNL1        0.0277
      6 H           9.1539    4.3552    2.4589 H       1  UNL1        0.0277
      7 H          10.6909    4.8972    1.7416 H       1  UNL1        0.0277
      8 H          10.2120    2.6515    0.0310 H       1  UNL1        0.0277
      9 H           8.7825    2.3803    1.0456 H       1  UNL1        0.0277
     10 H           9.9012    1.0458    0.7077 H       1  UNL1        0.0277
     11 H           9.9024    2.1646    4.6166 H       1  UNL1        0.0277
     12 H           9.6950    0.7457    3.5793 H       1  UNL1        0.0277
     13 H           8.6226    2.1458    3.3886 H       1  UNL1        0.0277
@<TRIPOS>BOND
     1     8     3    1
     2    10     3    1
     3     3     9    1
     4     3     1    1
     5     7     2    1
     6     1     2    1
     7     1     4    1
     8     6     2    1
     9     2     5    1
    10    13     4    1
    11    12     4    1
    12     4    11    1
