@<TRIPOS>MOLECULE
1
 13 12 0 0 0
SMALL
GASTEIGER

@<TRIPOS>ATOM
      1 P          13.4014    2.5791    0.2218 P.3     1  UNL1       -0.1154
      2 C          12.8788    4.1783   -0.5452 C.3     1  UNL1       -0.0447
      3 C          15.0508    2.5143   -0.6052 C.3     1  UNL1       -0.0447
      4 C          12.4967    1.4456   -0.9577 C.3     1  UNL1       -0.0447
      5 H          11.8679    4.4336   -0.2344 H       1  UNL1        0.0277
      6 H          12.9176    4.0982   -1.6319 H       1  UNL1        0.0277
      7 H          13.5550    4.9649   -0.2198 H       1  UNL1        0.0277
      8 H          15.4972    1.5301   -0.4907 H       1  UNL1        0.0277
      9 H          15.7028    3.2506   -0.1456 H       1  UNL1        0.0277
     10 H          14.9346    2.7390   -1.6660 H       1  UNL1        0.0277
     11 H          12.0367    0.6270   -0.4098 H       1  UNL1        0.0277
     12 H          13.1897    1.0371   -1.6915 H       1  UNL1        0.0277
     13 H          11.7172    1.9902   -1.4859 H       1  UNL1        0.0277
@<TRIPOS>BOND
     1    12     4    1
     2    10     3    1
     3     6     2    1
     4    13     4    1
     5     4    11    1
     6     4     1    1
     7     3     8    1
     8     3     9    1
     9     3     1    1
    10     2     5    1
    11     2     7    1
    12     2     1    1
