@<TRIPOS>MOLECULE
1
 13 12 0 0 0
SMALL
GASTEIGER

@<TRIPOS>ATOM
      1 P          13.0779    2.0980    4.8516 P.3     1  UNL1       -0.1154
      2 C          12.0401    0.7572    5.6390 C.3     1  UNL1       -0.0447
      3 C          14.5989    1.8467    5.8672 C.3     1  UNL1       -0.0447
      4 C          12.4285    3.5130    5.8493 C.3     1  UNL1       -0.0447
      5 H          11.6628    0.0810    4.8759 H       1  UNL1        0.0277
      6 H          11.1938    1.1911    6.1671 H       1  UNL1        0.0277
      7 H          12.6375    0.1908    6.3516 H       1  UNL1        0.0277
      8 H          15.0737    0.9019    5.6158 H       1  UNL1        0.0277
      9 H          14.3341    1.8495    6.9251 H       1  UNL1        0.0277
     10 H          15.2947    2.6545    5.6629 H       1  UNL1        0.0277
     11 H          11.4652    3.8379    5.4618 H       1  UNL1        0.0277
     12 H          13.1294    4.3416    5.7862 H       1  UNL1        0.0277
     13 H          12.3203    3.2128    6.8918 H       1  UNL1        0.0277
@<TRIPOS>BOND
     1     1     2    1
     2     1     4    1
     3     1     3    1
     4     5     2    1
     5    11     4    1
     6     8     3    1
     7     2     6    1
     8     2     7    1
     9    10     3    1
    10    12     4    1
    11     4    13    1
    12     3     9    1
