@<TRIPOS>MOLECULE
1
 13 12 0 0 0
SMALL
GASTEIGER

@<TRIPOS>ATOM
      1 P          13.3720   -0.0922    2.2929 P.3     1  UNL1       -0.1154
      2 C          14.4361   -0.7454    0.9324 C.3     1  UNL1       -0.0447
      3 C          14.2487   -1.0264    3.6227 C.3     1  UNL1       -0.0447
      4 C          11.9387   -1.2525    2.0724 C.3     1  UNL1       -0.0447
      5 H          14.0579   -0.4461   -0.0399 H       1  UNL1        0.0277
      6 H          14.4912   -1.8333    0.9807 H       1  UNL1        0.0277
      7 H          15.4323   -0.3287    1.0696 H       1  UNL1        0.0277
      8 H          13.7310   -0.9361    4.5724 H       1  UNL1        0.0277
      9 H          15.2450   -0.5987    3.7191 H       1  UNL1        0.0277
     10 H          14.3338   -2.0800    3.3551 H       1  UNL1        0.0277
     11 H          11.3852   -0.9826    1.1745 H       1  UNL1        0.0277
     12 H          11.2649   -1.1656    2.9233 H       1  UNL1        0.0277
     13 H          12.2778   -2.2846    1.9878 H       1  UNL1        0.0277
@<TRIPOS>BOND
     1     5     2    1
     2     2     6    1
     3     2     7    1
     4     2     1    1
     5    11     4    1
     6    13     4    1
     7     4     1    1
     8     4    12    1
     9     1     3    1
    10    10     3    1
    11     3     9    1
    12     3     8    1
