@<TRIPOS>MOLECULE
1
 58 57 0 0 0
SMALL
GASTEIGER

@<TRIPOS>ATOM
      1 P           3.7236    3.7779    2.4822 P.3     1  UNL1        0.0000
      2 C           5.4371    4.4031    2.2411 C.3     1  UNL1        0.0000
      3 C           3.1063    3.7187    0.7378 C.3     1  UNL1        0.0000
      4 SI          6.6180    3.0891    1.4682 Si      1  UNL1        0.0000
      5 SI          6.0621    5.3761    3.7768 Si      1  UNL1        0.0000
      6 SI          2.4164    5.4515    0.2470 Si      1  UNL1        0.0000
      7 SI          1.9249    2.2626    0.2508 Si      1  UNL1        0.0000
      8 C           5.7152    1.4721    1.0074 C.3     1  UNL1        0.0000
      9 C           8.1152    2.6037    2.5441 C.3     1  UNL1        0.0000
     10 C           7.2915    3.8943   -0.1317 C.3     1  UNL1        0.0000
     11 C           6.4531    4.2894    5.2899 C.3     1  UNL1        0.0000
     12 C           4.8004    6.7033    4.3304 C.3     1  UNL1        0.0000
     13 C           7.6144    6.3432    3.2240 C.3     1  UNL1        0.0000
     14 C           3.7285    6.8440    0.3663 C.3     1  UNL1        0.0000
     15 C           1.9056    5.4628   -1.5930 C.3     1  UNL1        0.0000
     16 C           0.9430    5.9255    1.3620 C.3     1  UNL1        0.0000
     17 C           2.3844    1.8370   -1.5574 C.3     1  UNL1        0.0000
     18 C           0.0734    2.7107    0.3215 C.3     1  UNL1        0.0000
     19 C           2.1610    0.6334    1.2154 C.3     1  UNL1        0.0000
     20 H           3.1435    4.9905    2.8674 H       1  UNL1        0.0000
     21 H           5.3175    5.1625    1.4646 H       1  UNL1        0.0000
     22 H           4.0133    3.5460    0.1522 H       1  UNL1        0.0000
     23 H           5.4141    1.4490   -0.0352 H       1  UNL1        0.0000
     24 H           4.8195    1.3567    1.6118 H       1  UNL1        0.0000
     25 H           6.3453    0.6061    1.1856 H       1  UNL1        0.0000
     26 H           8.6578    3.4648    2.9165 H       1  UNL1        0.0000
     27 H           8.8085    2.0108    1.9548 H       1  UNL1        0.0000
     28 H           7.8173    2.0026    3.3951 H       1  UNL1        0.0000
     29 H           7.8216    4.8154    0.0885 H       1  UNL1        0.0000
     30 H           6.4977    4.1338   -0.8335 H       1  UNL1        0.0000
     31 H           7.9857    3.2324   -0.6388 H       1  UNL1        0.0000
     32 H           7.2925    3.6273    5.1129 H       1  UNL1        0.0000
     33 H           5.5993    3.6741    5.5568 H       1  UNL1        0.0000
     34 H           6.6957    4.9072    6.1495 H       1  UNL1        0.0000
     35 H           4.6191    7.4403    3.5534 H       1  UNL1        0.0000
     36 H           5.1696    7.2386    5.2003 H       1  UNL1        0.0000
     37 H           3.8451    6.2657    4.5990 H       1  UNL1        0.0000
     38 H           8.3862    5.6941    2.8274 H       1  UNL1        0.0000
     39 H           8.0407    6.8867    4.0601 H       1  UNL1        0.0000
     40 H           7.3731    7.0692    2.4543 H       1  UNL1        0.0000
     41 H           4.6162    6.6286   -0.2216 H       1  UNL1        0.0000
     42 H           4.0394    7.0333    1.3882 H       1  UNL1        0.0000
     43 H           3.3073    7.7682   -0.0193 H       1  UNL1        0.0000
     44 H           1.0966    4.7740   -1.8042 H       1  UNL1        0.0000
     45 H           2.7366    5.2067   -2.2422 H       1  UNL1        0.0000
     46 H           1.5706    6.4559   -1.8738 H       1  UNL1        0.0000
     47 H           0.0269    6.0329    0.7904 H       1  UNL1        0.0000
     48 H           1.1180    6.8675    1.8736 H       1  UNL1        0.0000
     49 H           0.7672    5.1685    2.1202 H       1  UNL1        0.0000
     50 H           3.4154    1.5107   -1.6502 H       1  UNL1        0.0000
     51 H           2.2495    2.6840   -2.2182 H       1  UNL1        0.0000
     52 H           1.7567    1.0330   -1.9260 H       1  UNL1        0.0000
     53 H          -0.1584    3.6001   -0.2529 H       1  UNL1        0.0000
     54 H          -0.2512    2.8813    1.3415 H       1  UNL1        0.0000
     55 H          -0.5198    1.8944   -0.0809 H       1  UNL1        0.0000
     56 H           2.9828    0.0365    0.8326 H       1  UNL1        0.0000
     57 H           1.2599    0.0313    1.1464 H       1  UNL1        0.0000
     58 H           2.3453    0.8249    2.2807 H       1  UNL1        0.0000
@<TRIPOS>BOND
     1    45    15    1
     2    51    17    1
     3    52    17    1
     4    46    15    1
     5    44    15    1
     6    50    17    1
     7    15     6    1
     8    17     7    1
     9    30    10    1
    10    31    10    1
    11    53    18    1
    12    41    14    1
    13    10    29    1
    14    10     4    1
    15    55    18    1
    16    23     8    1
    17    43    14    1
    18    22     3    1
    19     6    14    1
    20     6     3    1
    21     6    16    1
    22     7    18    1
    23     7     3    1
    24     7    19    1
    25    18    54    1
    26    14    42    1
    27     3     1    1
    28    47    16    1
    29    56    19    1
    30     8    25    1
    31     8     4    1
    32     8    24    1
    33    57    19    1
    34    19    58    1
    35    16    48    1
    36    16    49    1
    37    21     2    1
    38     4     2    1
    39     4     9    1
    40    27     9    1
    41     2     1    1
    42     2     5    1
    43    40    13    1
    44     1    20    1
    45     9    26    1
    46     9    28    1
    47    38    13    1
    48    13     5    1
    49    13    39    1
    50    35    12    1
    51     5    12    1
    52     5    11    1
    53    12    37    1
    54    12    36    1
    55    32    11    1
    56    11    33    1
    57    11    34    1
