@<TRIPOS>MOLECULE
1
 58 57 0 0 0
SMALL
GASTEIGER

@<TRIPOS>ATOM
      1 P           2.0593    0.8155    5.4901 P.3     1  UNL1        0.0000
      2 C           2.7302   -0.7896    6.0867 C.3     1  UNL1        0.0000
      3 C           1.2339    1.4647    7.0136 C.3     1  UNL1        0.0000
      4 SI          4.2392   -0.5926    7.2700 Si      1  UNL1        0.0000
      5 SI          2.8737   -2.0605    4.6514 Si      1  UNL1        0.0000
      6 SI         -0.5444    0.7370    7.1569 Si      1  UNL1        0.0000
      7 SI          1.3026    3.3817    7.2809 Si      1  UNL1        0.0000
      8 C           4.6182    1.2294    7.6960 C.3     1  UNL1        0.0000
      9 C           5.8655   -1.3682    6.6470 C.3     1  UNL1        0.0000
     10 C           3.7391   -1.5027    8.8772 C.3     1  UNL1        0.0000
     11 C           1.2395   -2.1849    3.6649 C.3     1  UNL1        0.0000
     12 C           3.1287   -3.7773    5.4499 C.3     1  UNL1        0.0000
     13 C           4.2667   -1.6749    3.4131 C.3     1  UNL1        0.0000
     14 C          -1.6056    1.2669    5.6630 C.3     1  UNL1        0.0000
     15 C          -1.3421    1.3018    8.7977 C.3     1  UNL1        0.0000
     16 C          -0.5730   -1.1766    7.2636 C.3     1  UNL1        0.0000
     17 C          -0.2601    4.3069    6.7016 C.3     1  UNL1        0.0000
     18 C           2.8113    4.2325    6.4851 C.3     1  UNL1        0.0000
     19 C           1.4973    3.6245    9.1680 C.3     1  UNL1        0.0000
     20 H           0.9317    0.3066    4.8404 H       1  UNL1        0.0000
     21 H           1.9265   -1.1750    6.7185 H       1  UNL1        0.0000
     22 H           1.8305    1.0459    7.8284 H       1  UNL1        0.0000
     23 H           4.1533    1.5418    8.6259 H       1  UNL1        0.0000
     24 H           4.2562    1.8858    6.9096 H       1  UNL1        0.0000
     25 H           5.6872    1.3934    7.7935 H       1  UNL1        0.0000
     26 H           5.7396   -2.3948    6.3228 H       1  UNL1        0.0000
     27 H           6.5993   -1.3663    7.4475 H       1  UNL1        0.0000
     28 H           6.2853   -0.8062    5.8210 H       1  UNL1        0.0000
     29 H           4.5375   -1.4662    9.6109 H       1  UNL1        0.0000
     30 H           3.5231   -2.5482    8.6824 H       1  UNL1        0.0000
     31 H           2.8558   -1.0662    9.3345 H       1  UNL1        0.0000
     32 H           0.4004   -2.4527    4.3006 H       1  UNL1        0.0000
     33 H           1.3169   -2.9488    2.8967 H       1  UNL1        0.0000
     34 H           0.9940   -1.2508    3.1716 H       1  UNL1        0.0000
     35 H           3.2732   -4.5332    4.6859 H       1  UNL1        0.0000
     36 H           2.2647   -4.0707    6.0375 H       1  UNL1        0.0000
     37 H           3.9914   -3.8043    6.1051 H       1  UNL1        0.0000
     38 H           5.2505   -1.8023    3.8493 H       1  UNL1        0.0000
     39 H           4.1932   -0.6509    3.0588 H       1  UNL1        0.0000
     40 H           4.2013   -2.3285    2.5485 H       1  UNL1        0.0000
     41 H          -1.0169    1.8315    4.9462 H       1  UNL1        0.0000
     42 H          -2.4382    1.8935    5.9658 H       1  UNL1        0.0000
     43 H          -2.0187    0.4073    5.1433 H       1  UNL1        0.0000
     44 H          -1.4642    2.3769    8.8514 H       1  UNL1        0.0000
     45 H          -0.7544    0.9927    9.6560 H       1  UNL1        0.0000
     46 H          -2.3256    0.8554    8.9020 H       1  UNL1        0.0000
     47 H          -0.2504   -1.6479    6.3412 H       1  UNL1        0.0000
     48 H          -1.5886   -1.5100    7.4579 H       1  UNL1        0.0000
     49 H           0.0472   -1.5560    8.0705 H       1  UNL1        0.0000
     50 H          -1.1649    3.9052    7.1428 H       1  UNL1        0.0000
     51 H          -0.3676    4.2615    5.6239 H       1  UNL1        0.0000
     52 H          -0.1936    5.3543    6.9822 H       1  UNL1        0.0000
     53 H           3.6818    4.2393    7.1341 H       1  UNL1        0.0000
     54 H           2.5740    5.2640    6.2431 H       1  UNL1        0.0000
     55 H           3.0839    3.7201    5.5374 H       1  UNL1        0.0000
     56 H           1.5041    4.6808    9.4129 H       1  UNL1        0.0000
     57 H           2.4230    3.1993    9.5420 H       1  UNL1        0.0000
     58 H           0.6825    3.1683    9.7161 H       1  UNL1        0.0000
@<TRIPOS>BOND
     1    40    13    1
     2    33    11    1
     3    39    13    1
     4    34    11    1
     5    13    38    1
     6    13     5    1
     7    11    32    1
     8    11     5    1
     9     5    12    1
    10     5     2    1
    11    35    12    1
    12    20     1    1
    13    41    14    1
    14    43    14    1
    15    12    36    1
    16    12    37    1
    17     1     2    1
    18     1     3    1
    19    55    18    1
    20    51    17    1
    21    14    42    1
    22    14     6    1
    23    28     9    1
    24     2    21    1
    25     2     4    1
    26    54    18    1
    27    26     9    1
    28    47    16    1
    29    18    53    1
    30    18     7    1
    31     9     4    1
    32     9    27    1
    33    17    52    1
    34    17    50    1
    35    17     7    1
    36    24     8    1
    37     3     6    1
    38     3     7    1
    39     3    22    1
    40     6    16    1
    41     6    15    1
    42    16    48    1
    43    16    49    1
    44     4     8    1
    45     4    10    1
    46     7    19    1
    47     8    25    1
    48     8    23    1
    49    30    10    1
    50    15    44    1
    51    15    46    1
    52    15    45    1
    53    10    31    1
    54    10    29    1
    55    19    56    1
    56    19    57    1
    57    19    58    1
