@<TRIPOS>MOLECULE
1
 55 54 0 0 0
SMALL
GASTEIGER

@<TRIPOS>ATOM
      1 P           6.7997    2.9678    2.1103 P.3     1  UNL1        0.0000
      2 C           6.5695    3.7088    0.6214 C.3     1  UNL1        0.0000
      3 N           8.4519    2.7876    2.4216 N.3     1  UNL1        0.0000
      4 SI          7.7972    3.6671   -0.8262 Si      1  UNL1        0.0000
      5 SI          4.8720    4.5446    0.3936 Si      1  UNL1        0.0000
      6 SI          9.2661    4.2625    2.9837 Si      1  UNL1        0.0000
      7 SI          9.0690    1.1568    2.7296 Si      1  UNL1        0.0000
      8 C           9.3292    2.5440   -0.6837 C.3     1  UNL1        0.0000
      9 C           6.8271    2.9041   -2.2911 C.3     1  UNL1        0.0000
     10 C           8.4011    5.4290   -1.2710 C.3     1  UNL1        0.0000
     11 C           4.4720    5.6128    1.9279 C.3     1  UNL1        0.0000
     12 C           4.8822    5.8019   -1.0430 C.3     1  UNL1        0.0000
     13 C           3.4665    3.2943    0.0669 C.3     1  UNL1        0.0000
     14 C           9.9406    3.9882    4.7461 C.3     1  UNL1        0.0000
     15 C          10.7130    4.7559    1.8445 C.3     1  UNL1        0.0000
     16 C           8.0163    5.6941    3.0333 C.3     1  UNL1        0.0000
     17 C           8.0101   -0.0157    1.6622 C.3     1  UNL1        0.0000
     18 C           8.9686    0.6826    4.5794 C.3     1  UNL1        0.0000
     19 C          10.9074    1.0429    2.2459 C.3     1  UNL1        0.0000
     20 H           9.9999    2.8678    0.0985 H       1  UNL1        0.0000
     21 H           9.0460    1.5195   -0.4736 H       1  UNL1        0.0000
     22 H           9.8783    2.5470   -1.6216 H       1  UNL1        0.0000
     23 H           6.6363    1.8484   -2.1222 H       1  UNL1        0.0000
     24 H           5.8687    3.3842   -2.4471 H       1  UNL1        0.0000
     25 H           7.3930    2.9889   -3.2136 H       1  UNL1        0.0000
     26 H           7.7379    5.8972   -1.9895 H       1  UNL1        0.0000
     27 H           8.4509    6.0763   -0.4011 H       1  UNL1        0.0000
     28 H           9.3906    5.3992   -1.7174 H       1  UNL1        0.0000
     29 H           4.8282    5.1444    2.8413 H       1  UNL1        0.0000
     30 H           4.9361    6.5921    1.8584 H       1  UNL1        0.0000
     31 H           3.4025    5.7668    2.0331 H       1  UNL1        0.0000
     32 H           5.6489    6.5563   -0.9092 H       1  UNL1        0.0000
     33 H           5.0394    5.3390   -2.0090 H       1  UNL1        0.0000
     34 H           3.9262    6.3146   -1.0812 H       1  UNL1        0.0000
     35 H           3.7883    2.4918   -0.5895 H       1  UNL1        0.0000
     36 H           3.1155    2.8434    0.9902 H       1  UNL1        0.0000
     37 H           2.6178    3.7828   -0.4019 H       1  UNL1        0.0000
     38 H           9.1568    3.7218    5.4474 H       1  UNL1        0.0000
     39 H          10.6894    3.2044    4.7740 H       1  UNL1        0.0000
     40 H          10.4068    4.8984    5.1094 H       1  UNL1        0.0000
     41 H          11.4384    3.9587    1.7279 H       1  UNL1        0.0000
     42 H          10.3774    5.0521    0.8573 H       1  UNL1        0.0000
     43 H          11.2320    5.6026    2.2823 H       1  UNL1        0.0000
     44 H           7.6120    5.9055    2.0486 H       1  UNL1        0.0000
     45 H           7.1795    5.4589    3.6858 H       1  UNL1        0.0000
     46 H           8.4802    6.6010    3.4089 H       1  UNL1        0.0000
     47 H           7.3428    0.5551    1.0185 H       1  UNL1        0.0000
     48 H           8.6182   -0.6568    1.0320 H       1  UNL1        0.0000
     49 H           7.3941   -0.6626    2.2789 H       1  UNL1        0.0000
     50 H           9.9177    0.8457    5.0799 H       1  UNL1        0.0000
     51 H           8.2157    1.2575    5.1098 H       1  UNL1        0.0000
     52 H           8.7201   -0.3676    4.6991 H       1  UNL1        0.0000
     53 H          11.0799    1.1722    1.1845 H       1  UNL1        0.0000
     54 H          11.5059    1.7756    2.7754 H       1  UNL1        0.0000
     55 H          11.2795    0.0608    2.5188 H       1  UNL1        0.0000
@<TRIPOS>BOND
     1    25     9    1
     2    24     9    1
     3     9    23    1
     4     9     4    1
     5    33    12    1
     6    26    10    1
     7    28    10    1
     8    22     8    1
     9    10     4    1
    10    10    27    1
    11    34    12    1
    12    12    32    1
    13    12     5    1
    14     4     8    1
    15     4     2    1
    16     8    21    1
    17     8    20    1
    18    35    13    1
    19    37    13    1
    20    13     5    1
    21    13    36    1
    22     5     2    1
    23     5    11    1
    24     2     1    1
    25    42    15    1
    26    47    17    1
    27    48    17    1
    28    53    19    1
    29    17    49    1
    30    17     7    1
    31    41    15    1
    32    15    43    1
    33    15     6    1
    34    30    11    1
    35    11    31    1
    36    11    29    1
    37    44    16    1
    38     1     3    1
    39    19    55    1
    40    19     7    1
    41    19    54    1
    42     3     7    1
    43     3     6    1
    44     7    18    1
    45     6    16    1
    46     6    14    1
    47    16    46    1
    48    16    45    1
    49    18    52    1
    50    18    50    1
    51    18    51    1
    52    14    39    1
    53    14    40    1
    54    14    38    1
