@<TRIPOS>MOLECULE
1
 38 40 0 0 0
SMALL
GASTEIGER

@<TRIPOS>ATOM
      1 P           3.2723    5.5807    2.9445 P.3     1  UNL1        0.0000
      2 SI          6.1645    6.4440    3.8945 Si      1  UNL1        0.0000
      3 O           3.7727    5.5010    1.5517 O.2     1  UNL1        0.0000
      4 C           4.3848    6.0028    4.1307 C.3     1  UNL1        0.0000
      5 H           3.9635    6.0636    5.1280 H       1  UNL1        0.0000
      6 C           6.4445    8.1356    3.0671 C.ar    1  UNL1        0.0000
      7 C           6.8726    6.5365    5.6529 C.ar    1  UNL1        0.0000
      8 C           7.2219    5.2477    2.8725 C.ar    1  UNL1        0.0000
      9 C           6.6973    4.0884    2.3188 C.ar    1  UNL1        0.0000
     10 H           5.6505    3.8706    2.4673 H       1  UNL1        0.0000
     11 C           6.2360    7.3265    6.6034 C.ar    1  UNL1        0.0000
     12 H           5.3638    7.8972    6.3130 H       1  UNL1        0.0000
     13 C           6.2392    9.5476    1.1184 C.ar    1  UNL1        0.0000
     14 H           5.9101    9.6916    0.0982 H       1  UNL1        0.0000
     15 C           7.9964    5.8245    6.0482 C.ar    1  UNL1        0.0000
     16 H           8.5053    5.2023    5.3258 H       1  UNL1        0.0000
     17 C           7.0980    9.1776    3.7156 C.ar    1  UNL1        0.0000
     18 H           7.4395    9.0348    4.7317 H       1  UNL1        0.0000
     19 C           6.8924   10.5753    1.7793 C.ar    1  UNL1        0.0000
     20 H           7.0688   11.5181    1.2796 H       1  UNL1        0.0000
     21 C           6.7009    7.4037    7.9035 C.ar    1  UNL1        0.0000
     22 H           6.1903    8.0262    8.6266 H       1  UNL1        0.0000
     23 C           8.5653    5.5352    2.6447 C.ar    1  UNL1        0.0000
     24 H           8.9870    6.4452    3.0504 H       1  UNL1        0.0000
     25 C           7.3198   10.3879    3.0826 C.ar    1  UNL1        0.0000
     26 H           7.8318   11.1858    3.6034 H       1  UNL1        0.0000
     27 C           7.8243    6.6860    8.2794 C.ar    1  UNL1        0.0000
     28 H           8.1923    6.7434    9.2946 H       1  UNL1        0.0000
     29 C           7.4900    3.2323    1.5752 C.ar    1  UNL1        0.0000
     30 H           7.0686    2.3324    1.1484 H       1  UNL1        0.0000
     31 C           6.0165    8.3423    1.7589 C.ar    1  UNL1        0.0000
     32 H           5.5012    7.5425    1.2484 H       1  UNL1        0.0000
     33 C           8.4731    5.8962    7.3455 C.ar    1  UNL1        0.0000
     34 H           9.3524    5.3348    7.6318 H       1  UNL1        0.0000
     35 C           8.8282    3.5228    1.3722 C.ar    1  UNL1        0.0000
     36 H           9.4494    2.8527    0.7938 H       1  UNL1        0.0000
     37 C           9.3649    4.6824    1.9063 C.ar    1  UNL1        0.0000
     38 H          10.4072    4.9208    1.7432 H       1  UNL1        0.0000
@<TRIPOS>BOND
     1    14    13    1
     2    36    35    1
     3    13    31   ar
     4    13    19   ar
     5    30    29    1
     6    32    31    1
     7    20    19    1
     8    35    29   ar
     9    35    37   ar
    10     3     1    2
    11    29     9   ar
    12    38    37    1
    13    31     6   ar
    14    19    25   ar
    15    37    23   ar
    16     9    10    1
    17     9     8   ar
    18    23     8   ar
    19    23    24    1
    20     8     2    1
    21     1     4    1
    22     6    17   ar
    23     6     2    1
    24    25    26    1
    25    25    17   ar
    26    17    18    1
    27     2     4    1
    28     2     7    1
    29     4     5    1
    30    16    15    1
    31     7    15   ar
    32     7    11   ar
    33    15    33   ar
    34    12    11    1
    35    11    21   ar
    36    33    34    1
    37    33    27   ar
    38    21    27   ar
    39    21    22    1
    40    27    28    1
