@<TRIPOS>MOLECULE
1
 13 12 0 0 0
SMALL
GASTEIGER

@<TRIPOS>ATOM
      1 P           4.5685   -1.7448    0.6491 P.3     1  UNL1       -0.1154
      2 C           3.6420   -1.9544   -0.9211 C.3     1  UNL1       -0.0447
      3 C           4.5242   -3.4881    1.2034 C.3     1  UNL1       -0.0447
      4 C           6.2663   -1.5843    0.0057 C.3     1  UNL1       -0.0447
      5 H           4.0263   -2.8007   -1.4918 H       1  UNL1        0.0277
      6 H           2.5934   -2.1198   -0.6750 H       1  UNL1        0.0277
      7 H           3.7299   -1.0460   -1.5153 H       1  UNL1        0.0277
      8 H           3.4912   -3.7261    1.4561 H       1  UNL1        0.0277
      9 H           4.8769   -4.1565    0.4172 H       1  UNL1        0.0277
     10 H           5.1394   -3.6066    2.0929 H       1  UNL1        0.0277
     11 H           6.3595   -0.6042   -0.4619 H       1  UNL1        0.0277
     12 H           6.9662   -1.6258    0.8381 H       1  UNL1        0.0277
     13 H           6.4835   -2.3733   -0.7159 H       1  UNL1        0.0277
@<TRIPOS>BOND
     1     7     2    1
     2     5     2    1
     3     2     6    1
     4     2     1    1
     5    13     4    1
     6    11     4    1
     7     4     1    1
     8     4    12    1
     9     9     3    1
    10     1     3    1
    11     3     8    1
    12     3    10    1
