@<TRIPOS>MOLECULE
1
 13 12 0 0 0
SMALL
GASTEIGER

@<TRIPOS>ATOM
      1 P           5.0082   -1.0827    4.0134 P.3     1  UNL1       -0.1154
      2 C           5.2991    0.1421    5.3410 C.3     1  UNL1       -0.0447
      3 C           4.3301   -2.4775    4.9919 C.3     1  UNL1       -0.0447
      4 C           6.7363   -1.6386    3.7806 C.3     1  UNL1       -0.0447
      5 H           4.3502    0.4671    5.7690 H       1  UNL1        0.0277
      6 H           5.7933    1.0053    4.8911 H       1  UNL1        0.0277
      7 H           5.9302   -0.2793    6.1253 H       1  UNL1        0.0277
      8 H           3.3611   -2.1868    5.3938 H       1  UNL1        0.0277
      9 H           4.1878   -3.3401    4.3439 H       1  UNL1        0.0277
     10 H           5.0019   -2.7387    5.8101 H       1  UNL1        0.0277
     11 H           6.7709   -2.5167    3.1375 H       1  UNL1        0.0277
     12 H           7.1874   -1.8764    4.7452 H       1  UNL1        0.0277
     13 H           7.2846   -0.8246    3.3072 H       1  UNL1        0.0277
@<TRIPOS>BOND
     1    11     4    1
     2    13     4    1
     3     4     1    1
     4     4    12    1
     5     1     3    1
     6     1     2    1
     7     9     3    1
     8     6     2    1
     9     3     8    1
    10     3    10    1
    11     2     5    1
    12     2     7    1
