@<TRIPOS>MOLECULE
1
 13 12 0 0 0
SMALL
GASTEIGER

@<TRIPOS>ATOM
      1 P           2.9899    1.4202    0.5434 P.3     1  UNL1       -0.1154
      2 C           4.1903    1.9966   -0.7099 C.3     1  UNL1       -0.0447
      3 C           1.5425    1.0792   -0.5328 C.3     1  UNL1       -0.0447
      4 C           2.5316    3.0398    1.2602 C.3     1  UNL1       -0.0447
      5 H           3.7477    2.7728   -1.3359 H       1  UNL1        0.0277
      6 H           4.5064    1.1584   -1.3306 H       1  UNL1        0.0277
      7 H           5.0624    2.3882   -0.1872 H       1  UNL1        0.0277
      8 H           1.8321    0.3802   -1.3143 H       1  UNL1        0.0277
      9 H           1.1802    2.0006   -0.9887 H       1  UNL1        0.0277
     10 H           0.7507    0.6224    0.0560 H       1  UNL1        0.0277
     11 H           1.6881    2.9215    1.9400 H       1  UNL1        0.0277
     12 H           2.2794    3.7556    0.4759 H       1  UNL1        0.0277
     13 H           3.3897    3.4002    1.8306 H       1  UNL1        0.0277
@<TRIPOS>BOND
     1     5     2    1
     2     6     2    1
     3     8     3    1
     4     9     3    1
     5     2     7    1
     6     2     1    1
     7     3    10    1
     8     3     1    1
     9    12     4    1
    10     1     4    1
    11     4    13    1
    12     4    11    1
