@<TRIPOS>MOLECULE
1
 12 11 0 0 0
SMALL
GASTEIGER

@<TRIPOS>ATOM
      1 P           7.7456    7.7811    3.4517 P.3     1  UNL1        0.0790
      2 N           7.9070    7.7298    5.1821 N.3     1  UNL1       -0.1740
      3 C           6.8131    7.1302    4.8006 C.3     1  UNL1        0.1666
      4 N           5.8358    6.4453    5.3320 N.3     1  UNL1       -0.2839
      5 C           5.7731    6.2419    6.7632 C.3     1  UNL1       -0.0111
      6 H           6.5880    6.7887    7.2313 H       1  UNL1        0.0391
      7 H           5.8711    5.1795    6.9977 H       1  UNL1        0.0391
      8 H           4.8184    6.6047    7.1504 H       1  UNL1        0.0391
      9 C           4.8653    5.7426    4.5311 C.3     1  UNL1       -0.0111
     10 H           5.0500    5.9398    3.4771 H       1  UNL1        0.0391
     11 H           3.8535    6.0665    4.7873 H       1  UNL1        0.0391
     12 H           4.9428    4.6663    4.7074 H       1  UNL1        0.0391
@<TRIPOS>BOND
     1     1     2    1
     2    10     9    1
     3     9    12    1
     4     9    11    1
     5     9     4    1
     6     3     2    1
     7     3     4    1
     8     4     5    1
     9     5     7    1
    10     5     8    1
    11     5     6    1
