@<TRIPOS>MOLECULE
1
 62 61 0 0 0
SMALL
GASTEIGER

@<TRIPOS>ATOM
      1 P           7.6745    7.2713   14.3196 P.3     1  UNL1        0.0000
      2 H           6.9129    6.1696   13.8907 H       1  UNL1        0.0000
      3 N           6.7131    8.0014   15.4391 N.3     1  UNL1        0.0000
      4 C           5.6084    8.6683   15.3881 C.3     1  UNL1        0.0000
      5 N           4.6684    8.6718   14.3372 N.3     1  UNL1        0.0000
      6 C           4.5142    7.4323   13.6113 C.3     1  UNL1        0.0000
      7 H           5.3140    7.2557   12.8783 H       1  UNL1        0.0000
      8 H           3.5657    7.4730   13.0722 H       1  UNL1        0.0000
      9 H           4.4849    6.6011   14.3148 H       1  UNL1        0.0000
     10 C           4.8359    9.8034   13.4414 C.3     1  UNL1        0.0000
     11 H           5.0378   10.7049   14.0123 H       1  UNL1        0.0000
     12 H           3.9232    9.9363   12.8592 H       1  UNL1        0.0000
     13 H           5.6704    9.6425   12.7440 H       1  UNL1        0.0000
     14 N           5.2419    9.4314   16.4453 N.3     1  UNL1        0.0000
     15 C           6.2619    9.8265   17.4146 C.3     1  UNL1        0.0000
     16 H           7.1840    9.3603   17.0653 H       1  UNL1        0.0000
     17 C           5.9888    9.3192   18.8313 C.3     1  UNL1        0.0000
     18 H           5.6748    8.2790   18.8098 H       1  UNL1        0.0000
     19 H           5.2261    9.9044   19.3405 H       1  UNL1        0.0000
     20 H           6.9024    9.3906   19.4145 H       1  UNL1        0.0000
     21 C           6.4373   11.3451   17.3954 C.3     1  UNL1        0.0000
     22 H           6.6827   11.6821   16.3911 H       1  UNL1        0.0000
     23 H           7.2499   11.6273   18.0593 H       1  UNL1        0.0000
     24 H           5.5335   11.8528   17.7250 H       1  UNL1        0.0000
     25 C           3.8474    9.7088   16.7924 C.3     1  UNL1        0.0000
     26 H           3.8886   10.1054   17.8087 H       1  UNL1        0.0000
     27 C           3.1494   10.7677   15.9377 C.3     1  UNL1        0.0000
     28 H           3.7882   11.6346   15.7930 H       1  UNL1        0.0000
     29 H           2.2484   11.0931   16.4537 H       1  UNL1        0.0000
     30 H           2.8618   10.3676   14.9730 H       1  UNL1        0.0000
     31 C           3.0221    8.4218   16.8306 C.3     1  UNL1        0.0000
     32 H           3.5269    7.6633   17.4242 H       1  UNL1        0.0000
     33 H           2.8675    8.0361   15.8285 H       1  UNL1        0.0000
     34 H           2.0528    8.6241   17.2794 H       1  UNL1        0.0000
     35 C           8.8576    6.3337   15.3553 C.3     1  UNL1        0.0000
     36 H           9.6433    6.0621   14.6400 H       1  UNL1        0.0000
     37 SI          9.7168    7.4167   16.6881 Si      1  UNL1        0.0000
     38 C           9.7511    9.2836   16.2800 C.3     1  UNL1        0.0000
     39 H           8.9905    9.5373   15.5472 H       1  UNL1        0.0000
     40 H          10.7115    9.5846   15.8737 H       1  UNL1        0.0000
     41 H           9.5765    9.8882   17.1653 H       1  UNL1        0.0000
     42 C           8.8564    7.1860   18.3760 C.3     1  UNL1        0.0000
     43 H           7.7794    7.2367   18.2825 H       1  UNL1        0.0000
     44 H           9.1720    7.9519   19.0773 H       1  UNL1        0.0000
     45 H           9.1052    6.2262   18.8146 H       1  UNL1        0.0000
     46 C          11.5202    6.8095   16.8417 C.3     1  UNL1        0.0000
     47 H          12.0834    6.9852   15.9308 H       1  UNL1        0.0000
     48 H          11.5681    5.7476   17.0577 H       1  UNL1        0.0000
     49 H          12.0299    7.3310   17.6451 H       1  UNL1        0.0000
     50 SI          8.0668    4.6748   15.9104 Si      1  UNL1        0.0000
     51 C           7.6733    3.6293   14.3535 C.3     1  UNL1        0.0000
     52 H           6.6775    3.8253   13.9661 H       1  UNL1        0.0000
     53 H           7.7280    2.5681   14.5769 H       1  UNL1        0.0000
     54 H           8.3787    3.8290   13.5516 H       1  UNL1        0.0000
     55 C           6.4526    4.9568   16.8908 C.3     1  UNL1        0.0000
     56 H           5.9611    5.8678   16.5635 H       1  UNL1        0.0000
     57 H           6.6410    5.0453   17.9551 H       1  UNL1        0.0000
     58 H           5.7609    4.1316   16.7489 H       1  UNL1        0.0000
     59 C           9.3063    3.6616   16.9450 C.3     1  UNL1        0.0000
     60 H           9.6106    4.1771   17.8482 H       1  UNL1        0.0000
     61 H          10.2016    3.4356   16.3757 H       1  UNL1        0.0000
     62 H           8.8608    2.7176   17.2398 H       1  UNL1        0.0000
@<TRIPOS>BOND
     1    13    10    1
     2    12    10    1
     3     7     6    1
     4     8     6    1
     5    10    11    1
     6    10     5    1
     7    54    51    1
     8     6     9    1
     9     6     5    1
    10     2     1    1
    11    52    51    1
    12     1    35    1
    13     1     3    1
    14     5     4    1
    15    51    53    1
    16    51    50    1
    17    36    35    1
    18    30    27    1
    19    35    50    1
    20    35    37    1
    21     4     3    1
    22     4    14    1
    23    39    38    1
    24    28    27    1
    25    33    31    1
    26    40    38    1
    27    50    55    1
    28    50    59    1
    29    47    46    1
    30    27    29    1
    31    27    25    1
    32    38    37    1
    33    38    41    1
    34    61    59    1
    35    22    21    1
    36    14    25    1
    37    14    15    1
    38    56    55    1
    39    37    46    1
    40    37    42    1
    41    58    55    1
    42    25    31    1
    43    25    26    1
    44    31    34    1
    45    31    32    1
    46    46    48    1
    47    46    49    1
    48    55    57    1
    49    59    62    1
    50    59    60    1
    51    16    15    1
    52    21    15    1
    53    21    24    1
    54    21    23    1
    55    15    17    1
    56    43    42    1
    57    42    45    1
    58    42    44    1
    59    18    17    1
    60    17    19    1
    61    17    20    1
