@<TRIPOS>MOLECULE
1
 13 12 0 0 0
SMALL
GASTEIGER

@<TRIPOS>ATOM
      1 P          10.6865    0.3641    7.2665 P.3     1  UNL1       -0.1154
      2 C           9.4804    0.6143    8.6330 C.3     1  UNL1       -0.0447
      3 H           9.2150   -0.3459    9.0759 H       1  UNL1        0.0277
      4 H           8.5886    1.0931    8.2363 H       1  UNL1        0.0277
      5 H           9.8986    1.2616    9.3999 H       1  UNL1        0.0277
      6 C           9.9137   -1.1143    6.4873 C.3     1  UNL1       -0.0447
      7 H           9.8029   -1.9047    7.2306 H       1  UNL1        0.0277
      8 H          10.5608   -1.4676    5.6839 H       1  UNL1        0.0277
      9 H           8.9407   -0.8554    6.0826 H       1  UNL1        0.0277
     10 C          12.0004   -0.5846    8.1612 C.3     1  UNL1       -0.0447
     11 H          11.5360   -1.1896    8.9407 H       1  UNL1        0.0277
     12 H          12.7495    0.0643    8.6086 H       1  UNL1        0.0277
     13 H          12.5014   -1.2335    7.4438 H       1  UNL1        0.0277
@<TRIPOS>BOND
     1     8     6    1
     2     9     6    1
     3     6     7    1
     4     6     1    1
     5     1    10    1
     6     1     2    1
     7    13    10    1
     8    10    12    1
     9    10    11    1
    10     4     2    1
    11     2     3    1
    12     2     5    1
