@<TRIPOS>MOLECULE
1
 13 12 0 0 0
SMALL
GASTEIGER

@<TRIPOS>ATOM
      1 P           2.1267    6.8110   21.1255 P.3     1  UNL1       -0.1154
      2 C           1.3285    8.3512   21.7388 C.3     1  UNL1       -0.0447
      3 H           2.0257    9.1812   21.6626 H       1  UNL1        0.0277
      4 H           1.0274    8.2188   22.7754 H       1  UNL1        0.0277
      5 H           0.4447    8.5646   21.1354 H       1  UNL1        0.0277
      6 C           0.6549    5.7266   21.3247 C.3     1  UNL1       -0.0447
      7 H           0.8125    4.7783   20.8200 H       1  UNL1        0.0277
      8 H          -0.2360    6.2094   20.9221 H       1  UNL1        0.0277
      9 H           0.5126    5.5299   22.3873 H       1  UNL1        0.0277
     10 C           1.9982    7.2030   19.3370 C.3     1  UNL1       -0.0447
     11 H           2.3482    6.3618   18.7453 H       1  UNL1        0.0277
     12 H           2.6402    8.0584   19.1313 H       1  UNL1        0.0277
     13 H           0.9686    7.4424   19.0677 H       1  UNL1        0.0277
@<TRIPOS>BOND
     1    11    10    1
     2    13    10    1
     3    12    10    1
     4    10     1    1
     5     7     6    1
     6     8     6    1
     7     1     6    1
     8     1     2    1
     9     5     2    1
    10     6     9    1
    11     3     2    1
    12     2     4    1
