@<TRIPOS>MOLECULE
1
 28 27 0 0 0
SMALL
GASTEIGER

@<TRIPOS>ATOM
      1 P           5.3107    0.5595   -0.7394 P.3     1  UNL1        0.0000
      2 SI          5.0842   -1.0730   -3.3108 Si      1  UNL1        0.0000
      3 SI          2.4771   -0.4123   -1.2760 Si      1  UNL1        0.0000
      4 C           4.3310   -0.3672   -1.7102 C.3     1  UNL1        0.0000
      5 C           4.0163   -0.5699   -4.8076 C.3     1  UNL1        0.0000
      6 C           6.8386   -0.3526   -3.4874 C.3     1  UNL1        0.0000
      7 C           5.1790   -2.9756   -3.1753 C.3     1  UNL1        0.0000
      8 C           1.7175   -2.0771   -1.8107 C.3     1  UNL1        0.0000
      9 C           1.6030    1.0394   -2.1517 C.3     1  UNL1        0.0000
     10 C           2.3251   -0.2062    0.6131 C.3     1  UNL1        0.0000
     11 H           4.4416   -0.9465   -5.7324 H       1  UNL1        0.0000
     12 H           3.0089   -0.9635   -4.7248 H       1  UNL1        0.0000
     13 H           3.9443    0.5093   -4.8935 H       1  UNL1        0.0000
     14 H           7.3348   -0.6873   -4.3929 H       1  UNL1        0.0000
     15 H           6.8078    0.7338   -3.5068 H       1  UNL1        0.0000
     16 H           7.4598   -0.6415   -2.6432 H       1  UNL1        0.0000
     17 H           5.6742   -3.4037   -4.0414 H       1  UNL1        0.0000
     18 H           5.7349   -3.2802   -2.2942 H       1  UNL1        0.0000
     19 H           4.1909   -3.4174   -3.1100 H       1  UNL1        0.0000
     20 H           0.6696   -2.1280   -1.5329 H       1  UNL1        0.0000
     21 H           1.7788   -2.2125   -2.8849 H       1  UNL1        0.0000
     22 H           2.2226   -2.9149   -1.3416 H       1  UNL1        0.0000
     23 H           0.5527    1.0918   -1.8821 H       1  UNL1        0.0000
     24 H           2.0639    1.9840   -1.8780 H       1  UNL1        0.0000
     25 H           1.6622    0.9449   -3.2308 H       1  UNL1        0.0000
     26 H           1.2916   -0.1261    0.9348 H       1  UNL1        0.0000
     27 H           2.7690   -1.0473    1.1372 H       1  UNL1        0.0000
     28 H           2.8449    0.6939    0.9357 H       1  UNL1        0.0000
@<TRIPOS>BOND
     1    11     5    1
     2    13     5    1
     3     5    12    1
     4     5     2    1
     5    14     6    1
     6    17     7    1
     7    15     6    1
     8     6     2    1
     9     6    16    1
    10     2     7    1
    11     2     4    1
    12    25     9    1
    13     7    19    1
    14     7    18    1
    15    21     8    1
    16     9    23    1
    17     9    24    1
    18     9     3    1
    19     8    20    1
    20     8    22    1
    21     8     3    1
    22     4     3    1
    23     4     1    1
    24     3    10    1
    25    10    26    1
    26    10    28    1
    27    10    27    1
