@<TRIPOS>MOLECULE
1
 13 12 0 0 0
SMALL
GASTEIGER

@<TRIPOS>ATOM
      1 P           8.0041    3.4222    8.2263 P.3     1  UNL1       -0.1154
      2 C           7.5640    1.6301    8.0802 C.3     1  UNL1       -0.0447
      3 H           6.4810    1.5256    8.1431 H       1  UNL1        0.0277
      4 H           8.0282    1.0728    8.8922 H       1  UNL1        0.0277
      5 H           7.9193    1.2263    7.1326 H       1  UNL1        0.0277
      6 C           9.8492    3.2060    8.0412 C.3     1  UNL1       -0.0447
      7 H          10.0887    2.6104    7.1616 H       1  UNL1        0.0277
      8 H          10.2432    2.7081    8.9256 H       1  UNL1        0.0277
      9 H          10.3281    4.1794    7.9545 H       1  UNL1        0.0277
     10 C           7.6537    3.9307    6.4817 C.3     1  UNL1       -0.0447
     11 H           8.0605    3.1995    5.7834 H       1  UNL1        0.0277
     12 H           8.1062    4.8994    6.2789 H       1  UNL1        0.0277
     13 H           6.5746    4.0081    6.3508 H       1  UNL1        0.0277
@<TRIPOS>BOND
     1    11    10    1
     2    12    10    1
     3    13    10    1
     4    10     1    1
     5     5     2    1
     6     7     6    1
     7     9     6    1
     8     6     1    1
     9     6     8    1
    10     2     3    1
    11     2     1    1
    12     2     4    1
