@<TRIPOS>MOLECULE
1
 13 12 0 0 0
SMALL
GASTEIGER

@<TRIPOS>ATOM
      1 P          -1.6066    1.1717    2.1144 P.3     1  UNL1       -0.1154
      2 C          -3.4042    1.2941    2.4788 C.3     1  UNL1       -0.0447
      3 H          -3.9607    0.7891    1.6897 H       1  UNL1        0.0277
      4 H          -3.7448    2.3239    2.5547 H       1  UNL1        0.0277
      5 H          -3.5904    0.7938    3.4290 H       1  UNL1        0.0277
      6 C          -1.4712   -0.6516    2.0730 C.3     1  UNL1       -0.0447
      7 H          -2.3317   -1.0554    1.5387 H       1  UNL1        0.0277
      8 H          -1.4594   -1.0406    3.0914 H       1  UNL1        0.0277
      9 H          -0.5509   -0.9500    1.5745 H       1  UNL1        0.0277
     10 C          -1.5277    1.5545    0.3221 C.3     1  UNL1       -0.0447
     11 H          -2.2335    0.9321   -0.2272 H       1  UNL1        0.0277
     12 H          -0.5151    1.3486   -0.0244 H       1  UNL1        0.0277
     13 H          -1.7410    2.6062    0.1417 H       1  UNL1        0.0277
@<TRIPOS>BOND
     1    11    10    1
     2    12    10    1
     3    13    10    1
     4    10     1    1
     5     7     6    1
     6     9     6    1
     7     3     2    1
     8     6     1    1
     9     6     8    1
    10     1     2    1
    11     2     4    1
    12     2     5    1
