@<TRIPOS>MOLECULE
1
 13 12 0 0 0
SMALL
GASTEIGER

@<TRIPOS>ATOM
      1 P           1.3957    2.6816    5.1910 P.3     1  UNL1       -0.1154
      2 C           0.7831    3.3975    6.7693 C.3     1  UNL1       -0.0447
      3 H           1.6333    3.5977    7.4209 H       1  UNL1        0.0277
      4 H           0.1306    2.6638    7.2421 H       1  UNL1        0.0277
      5 H           0.2224    4.3171    6.6198 H       1  UNL1        0.0277
      6 C           2.8328    3.7503    4.7925 C.3     1  UNL1       -0.0447
      7 H           3.5023    3.8162    5.6497 H       1  UNL1        0.0277
      8 H           2.5037    4.7457    4.5009 H       1  UNL1        0.0277
      9 H           3.3630    3.3064    3.9501 H       1  UNL1        0.0277
     10 C           2.2489    1.2184    5.8804 C.3     1  UNL1       -0.0447
     11 H           2.7914    1.5185    6.7774 H       1  UNL1        0.0277
     12 H           2.9407    0.8059    5.1485 H       1  UNL1        0.0277
     13 H           1.5145    0.4547    6.1371 H       1  UNL1        0.0277
@<TRIPOS>BOND
     1     9     6    1
     2     8     6    1
     3     6     1    1
     4     6     7    1
     5    12    10    1
     6     1    10    1
     7     1     2    1
     8    10    13    1
     9    10    11    1
    10     5     2    1
    11     2     4    1
    12     2     3    1
