@<TRIPOS>MOLECULE
1
 13 12 0 0 0
SMALL
GASTEIGER

@<TRIPOS>ATOM
      1 P          -1.3194    4.1687    3.7361 P.3     1  UNL1       -0.1154
      2 C          -0.3832    5.7066    4.0971 C.3     1  UNL1       -0.0447
      3 H          -1.0744    6.5467    4.1666 H       1  UNL1        0.0277
      4 H           0.3124    5.8701    3.2742 H       1  UNL1        0.0277
      5 H           0.1796    5.6317    5.0240 H       1  UNL1        0.0277
      6 C          -2.1842    4.7987    2.2433 C.3     1  UNL1       -0.0447
      7 H          -2.7052    5.7249    2.4865 H       1  UNL1        0.0277
      8 H          -2.9000    4.0795    1.8538 H       1  UNL1        0.0277
      9 H          -1.4280    4.9911    1.4825 H       1  UNL1        0.0277
     10 C          -2.6452    4.2173    5.0011 C.3     1  UNL1       -0.0447
     11 H          -3.1371    5.1895    4.9986 H       1  UNL1        0.0277
     12 H          -2.2159    4.0191    5.9824 H       1  UNL1        0.0277
     13 H          -3.3708    3.4313    4.7962 H       1  UNL1        0.0277
@<TRIPOS>BOND
     1     9     6    1
     2     8     6    1
     3     6     7    1
     4     6     1    1
     5     4     2    1
     6     1     2    1
     7     1    10    1
     8     2     3    1
     9     2     5    1
    10    13    10    1
    11    11    10    1
    12    10    12    1
