@<TRIPOS>MOLECULE
1
 13 12 0 0 0
SMALL
GASTEIGER

@<TRIPOS>ATOM
      1 P           9.1237   15.6900   11.0141 P.3     1  UNL1       -0.1154
      2 C           9.4948   15.0152    9.3312 C.3     1  UNL1       -0.0447
      3 H           9.0495   15.6422    8.5597 H       1  UNL1        0.0277
      4 H           9.0854   14.0085    9.2613 H       1  UNL1        0.0277
      5 H          10.5701   14.9728    9.1734 H       1  UNL1        0.0277
      6 C           9.6830   17.4400   10.7129 C.3     1  UNL1       -0.0447
      7 H          10.7703   17.4841   10.6786 H       1  UNL1        0.0277
      8 H           9.3397   18.0675   11.5343 H       1  UNL1        0.0277
      9 H           9.2820   17.8282    9.7776 H       1  UNL1        0.0277
     10 C           7.3185   15.9965   10.7360 C.3     1  UNL1       -0.0447
     11 H           7.1561   16.4785    9.7730 H       1  UNL1        0.0277
     12 H           6.9272   16.6439   11.5182 H       1  UNL1        0.0277
     13 H           6.7854   15.0483   10.7634 H       1  UNL1        0.0277
@<TRIPOS>BOND
     1     3     2    1
     2     5     2    1
     3     4     2    1
     4     2     1    1
     5    11    10    1
     6     9     6    1
     7     7     6    1
     8     6     1    1
     9     6     8    1
    10    10    13    1
    11    10     1    1
    12    10    12    1
