@<TRIPOS>MOLECULE
1
 34 36 0 0 0
SMALL
GASTEIGER

@<TRIPOS>ATOM
      1 P           6.3744    3.9882    0.2148 P.3     1  UNL1       -0.0131
      2 C           8.1041    4.4127    0.6346 C.ar    1  UNL1       -0.0147
      3 C           9.0365    3.3939    0.4405 C.ar    1  UNL1       -0.0535
      4 C          10.3729    3.6089    0.7154 C.ar    1  UNL1       -0.0611
      5 C          10.7917    4.8427    1.1893 C.ar    1  UNL1       -0.0617
      6 C           9.8683    5.8542    1.3911 C.ar    1  UNL1       -0.0611
      7 C           8.5272    5.6445    1.1179 C.ar    1  UNL1       -0.0535
      8 C           5.5417    5.6059    0.1972 C.ar    1  UNL1       -0.0147
      9 C           5.0496    6.2325   -0.9398 C.ar    1  UNL1       -0.0535
     10 C           4.3503    7.4225   -0.8226 C.ar    1  UNL1       -0.0611
     11 C           4.1367    7.9897    0.4219 C.ar    1  UNL1       -0.0617
     12 C           4.6101    7.3576    1.5625 C.ar    1  UNL1       -0.0611
     13 C           5.2983    6.1657    1.4517 C.ar    1  UNL1       -0.0535
     14 C           6.6263    3.6069   -1.5489 C.ar    1  UNL1       -0.0147
     15 C           6.0808    2.4373   -2.0598 C.ar    1  UNL1       -0.0535
     16 C           6.2551    2.1125   -3.3935 C.ar    1  UNL1       -0.0611
     17 C           6.9782    2.9569   -4.2192 C.ar    1  UNL1       -0.0617
     18 C           7.5368    4.1197   -3.7096 C.ar    1  UNL1       -0.0611
     19 C           7.3677    4.4452   -2.3773 C.ar    1  UNL1       -0.0535
     20 H           8.6993    2.4337    0.0686 H       1  UNL1        0.0624
     21 H          11.0888    2.8157    0.5550 H       1  UNL1        0.0618
     22 H          11.8367    5.0142    1.4025 H       1  UNL1        0.0618
     23 H          10.1938    6.8162    1.7605 H       1  UNL1        0.0618
     24 H           7.8136    6.4411    1.2718 H       1  UNL1        0.0624
     25 H           5.2060    5.7907   -1.9137 H       1  UNL1        0.0624
     26 H           3.9668    7.9070   -1.7092 H       1  UNL1        0.0618
     27 H           3.5913    8.9184    0.5058 H       1  UNL1        0.0618
     28 H           4.4315    7.7920    2.5356 H       1  UNL1        0.0618
     29 H           5.6476    5.6390    2.3337 H       1  UNL1        0.0624
     30 H           5.5326    1.7846   -1.3889 H       1  UNL1        0.0624
     31 H           5.8310    1.2011   -3.7893 H       1  UNL1        0.0618
     32 H           7.1143    2.7071   -5.2614 H       1  UNL1        0.0618
     33 H           8.1080    4.7715   -4.3551 H       1  UNL1        0.0618
     34 H           7.8087    5.3456   -1.9700 H       1  UNL1        0.0624
@<TRIPOS>BOND
     1    32    17    1
     2    33    18    1
     3    17    18   ar
     4    17    16   ar
     5    31    16    1
     6    18    19   ar
     7    16    15   ar
     8    19    34    1
     9    19    14   ar
    10    15    14   ar
    11    15    30    1
    12    25     9    1
    13    26    10    1
    14    14     1    1
    15     9    10   ar
    16     9     8   ar
    17    10    11   ar
    18    20     3    1
    19     8     1    1
    20     8    13   ar
    21     1     2    1
    22    11    27    1
    23    11    12   ar
    24     3     2   ar
    25     3     4   ar
    26    21     4    1
    27     2     7   ar
    28     4     5   ar
    29     7    24    1
    30     7     6   ar
    31     5     6   ar
    32     5    22    1
    33     6    23    1
    34    13    12   ar
    35    13    29    1
    36    12    28    1
