@<TRIPOS>MOLECULE
1
 50 50 0 0 0
SMALL
GASTEIGER

@<TRIPOS>ATOM
      1 P          11.7028    4.8440    8.3386 P.3     1  UNL1        0.0000
      2 SI         12.5633    4.2824    5.4844 Si      1  UNL1        0.0000
      3 SI         12.8368    7.2317    6.7983 Si      1  UNL1        0.0000
      4 N          11.1348    2.2931    9.1272 N.pl3   1  UNL1        0.0000
      5 N          13.2795    2.4608    8.8154 N.pl3   1  UNL1        0.0000
      6 C          12.1187    3.1632    8.7760 C.3     1  UNL1        0.0000
      7 C          11.6783    1.0589    9.4081 C.2     1  UNL1        0.0000
      8 C          13.0165    1.1573    9.1976 C.2     1  UNL1        0.0000
      9 C           9.7544    2.6461    9.2491 C.3     1  UNL1        0.0000
     10 H           9.5229    2.9772   10.2652 H       1  UNL1        0.0000
     11 H           9.1253    1.7944    8.9957 H       1  UNL1        0.0000
     12 H           9.5540    3.4745    8.5629 H       1  UNL1        0.0000
     13 C          10.8474   -0.0833    9.8659 C.3     1  UNL1        0.0000
     14 H          10.2839    0.1941   10.7557 H       1  UNL1        0.0000
     15 H          11.4801   -0.9311   10.1091 H       1  UNL1        0.0000
     16 H          10.1414   -0.3884    9.0929 H       1  UNL1        0.0000
     17 C          14.0864    0.1341    9.3230 C.3     1  UNL1        0.0000
     18 H          14.7116    0.1182    8.4313 H       1  UNL1        0.0000
     19 H          13.6423   -0.8484    9.4502 H       1  UNL1        0.0000
     20 H          14.7205    0.3348   10.1874 H       1  UNL1        0.0000
     21 C          14.5978    3.0118    8.6907 C.3     1  UNL1        0.0000
     22 H          14.9144    3.0572    7.6458 H       1  UNL1        0.0000
     23 H          15.3013    2.3965    9.2488 H       1  UNL1        0.0000
     24 H          14.6024    4.0153    9.1159 H       1  UNL1        0.0000
     25 C          12.9652    5.3207    7.0524 C.3     1  UNL1        0.0000
     26 H          13.9812    5.1316    7.3926 H       1  UNL1        0.0000
     27 C          10.9457    4.9217    4.7078 C.3     1  UNL1        0.0000
     28 H          10.1852    5.0601    5.4699 H       1  UNL1        0.0000
     29 H          10.5585    4.2204    3.9754 H       1  UNL1        0.0000
     30 H          11.0867    5.8731    4.2082 H       1  UNL1        0.0000
     31 C          14.0273    4.3523    4.2586 C.3     1  UNL1        0.0000
     32 H          14.1895    5.3525    3.8774 H       1  UNL1        0.0000
     33 H          13.8394    3.7048    3.4083 H       1  UNL1        0.0000
     34 H          14.9553    4.0241    4.7175 H       1  UNL1        0.0000
     35 C          12.2704    2.4103    5.7730 C.3     1  UNL1        0.0000
     36 H          13.1222    1.9070    6.2176 H       1  UNL1        0.0000
     37 H          12.0814    1.9310    4.8169 H       1  UNL1        0.0000
     38 H          11.4061    2.2259    6.4014 H       1  UNL1        0.0000
     39 C          13.4694    7.7889    5.0867 C.3     1  UNL1        0.0000
     40 H          14.5032    7.5026    4.9286 H       1  UNL1        0.0000
     41 H          13.4206    8.8705    5.0185 H       1  UNL1        0.0000
     42 H          12.8815    7.3849    4.2715 H       1  UNL1        0.0000
     43 C          11.0283    7.8105    6.9677 C.3     1  UNL1        0.0000
     44 H          10.4819    7.6867    6.0382 H       1  UNL1        0.0000
     45 H          10.9770    8.8600    7.2410 H       1  UNL1        0.0000
     46 H          10.5059    7.2448    7.7355 H       1  UNL1        0.0000
     47 C          14.0040    8.0997    8.0355 C.3     1  UNL1        0.0000
     48 H          13.8286    7.7832    9.0592 H       1  UNL1        0.0000
     49 H          13.8676    9.1761    7.9997 H       1  UNL1        0.0000
     50 H          15.0449    7.8954    7.8005 H       1  UNL1        0.0000
@<TRIPOS>BOND
     1    33    31    1
     2    32    31    1
     3    29    27    1
     4    30    27    1
     5    31    34    1
     6    31     2    1
     7    42    39    1
     8    27    28    1
     9    27     2    1
    10    37    35    1
    11    40    39    1
    12    41    39    1
    13    39     3    1
    14     2    35    1
    15     2    25    1
    16    35    36    1
    17    35    38    1
    18    44    43    1
    19     3    43    1
    20     3    25    1
    21     3    47    1
    22    43    45    1
    23    43    46    1
    24    25    26    1
    25    25     1    1
    26    22    21    1
    27    50    47    1
    28    49    47    1
    29    47    48    1
    30     1     6    1
    31    18    17    1
    32    12     9    1
    33    21     5    1
    34    21    24    1
    35    21    23    1
    36     6     5    1
    37     6     4    1
    38     5     8    1
    39    11     9    1
    40    16    13    1
    41     4     9    1
    42     4     7    1
    43     8    17    1
    44     8     7    2
    45     9    10    1
    46    17    19    1
    47    17    20    1
    48     7    13    1
    49    13    15    1
    50    13    14    1
