@<TRIPOS>MOLECULE
1
 116 122 0 0 0
SMALL
GASTEIGER

@<TRIPOS>ATOM
      1 P           7.4796    0.7054    3.0697 P.3     1  UNL1        0.0000
      2 SI          7.9026    1.3192    5.6127 Si      1  UNL1        0.0000
      3 SI          7.5626    3.9706    3.5618 Si      1  UNL1        0.0000
      4 N           9.3914    1.0404    6.4483 N.pl3   1  UNL1        0.0000
      5 N           7.1807    2.0869    6.9715 N.pl3   1  UNL1        0.0000
      6 N           7.8712    4.8223    5.0433 N.pl3   1  UNL1        0.0000
      7 N           5.9256    4.5579    3.5094 N.pl3   1  UNL1        0.0000
      8 C           7.0960   -0.0243    4.5503 C.3     1  UNL1        0.0000
      9 C           8.1557    2.1862    3.9046 C.3     1  UNL1        0.0000
     10 H           9.2195    2.2340    3.6551 H       1  UNL1        0.0000
     11 C           6.4752   -1.2954    4.7980 C.ar    1  UNL1        0.0000
     12 C           6.5306   -1.8685    6.0738 C.ar    1  UNL1        0.0000
     13 H           7.0400   -1.3316    6.8634 H       1  UNL1        0.0000
     14 C           5.9561   -3.0989    6.3169 C.ar    1  UNL1        0.0000
     15 H           6.0115   -3.5319    7.3049 H       1  UNL1        0.0000
     16 C           5.3084   -3.7799    5.2974 C.ar    1  UNL1        0.0000
     17 H           4.8601   -4.7432    5.4886 H       1  UNL1        0.0000
     18 C           5.2327   -3.2166    4.0323 C.ar    1  UNL1        0.0000
     19 H           4.7218   -3.7402    3.2376 H       1  UNL1        0.0000
     20 C           5.8063   -1.9871    3.7846 C.ar    1  UNL1        0.0000
     21 H           5.7364   -1.5333    2.8035 H       1  UNL1        0.0000
     22 C           8.3969    4.5926    1.9673 C.ar    1  UNL1        0.0000
     23 C           9.2762    3.8124    1.2229 C.ar    1  UNL1        0.0000
     24 H           9.5191    2.8148    1.5621 H       1  UNL1        0.0000
     25 C           9.8461    4.2825    0.0537 C.ar    1  UNL1        0.0000
     26 H          10.5211    3.6516   -0.5066 H       1  UNL1        0.0000
     27 C           9.5464    5.5565   -0.3967 C.ar    1  UNL1        0.0000
     28 H           9.9869    5.9262   -1.3108 H       1  UNL1        0.0000
     29 C           8.6766    6.3529    0.3297 C.ar    1  UNL1        0.0000
     30 H           8.4381    7.3480   -0.0166 H       1  UNL1        0.0000
     31 C           8.1097    5.8736    1.4958 C.ar    1  UNL1        0.0000
     32 H           7.4275    6.4977    2.0560 H       1  UNL1        0.0000
     33 C           9.3232    1.5595    7.7351 C.ar    1  UNL1        0.0000
     34 C           8.0867    2.1696    8.0181 C.ar    1  UNL1        0.0000
     35 C           7.9011    2.8103    9.2293 C.ar    1  UNL1        0.0000
     36 H           6.9753    3.3152    9.4527 H       1  UNL1        0.0000
     37 C           8.9222    2.8222   10.1689 C.ar    1  UNL1        0.0000
     38 H           8.7690    3.3234   11.1126 H       1  UNL1        0.0000
     39 C          10.1245    2.1996    9.9011 C.ar    1  UNL1        0.0000
     40 H          10.9152    2.2049   10.6359 H       1  UNL1        0.0000
     41 C          10.3308    1.5706    8.6815 C.ar    1  UNL1        0.0000
     42 H          11.2827    1.1035    8.4859 H       1  UNL1        0.0000
     43 C          10.6407    0.6130    5.8668 C.3     1  UNL1        0.0000
     44 H          11.4540    1.1130    6.3993 H       1  UNL1        0.0000
     45 H          10.6661    0.9638    4.8293 H       1  UNL1        0.0000
     46 C          10.9169   -0.9082    5.8457 C.3     1  UNL1        0.0000
     47 C          10.6221   -1.5403    7.2055 C.3     1  UNL1        0.0000
     48 H           9.6090   -1.3068    7.5223 H       1  UNL1        0.0000
     49 H          11.3109   -1.1757    7.9631 H       1  UNL1        0.0000
     50 H          10.7242   -2.6212    7.1443 H       1  UNL1        0.0000
     51 C          12.3949   -1.1031    5.4931 C.3     1  UNL1        0.0000
     52 H          13.0389   -0.6376    6.2363 H       1  UNL1        0.0000
     53 H          12.6173   -0.6644    4.5226 H       1  UNL1        0.0000
     54 H          12.6351   -2.1627    5.4518 H       1  UNL1        0.0000
     55 C          10.0620   -1.5909    4.7768 C.3     1  UNL1        0.0000
     56 H          10.3707   -2.6265    4.6521 H       1  UNL1        0.0000
     57 H          10.1635   -1.0888    3.8133 H       1  UNL1        0.0000
     58 H           9.0146   -1.5837    5.0586 H       1  UNL1        0.0000
     59 C           5.9055    2.7566    7.0149 C.3     1  UNL1        0.0000
     60 H           5.6666    3.0767    5.9981 H       1  UNL1        0.0000
     61 H           6.0092    3.6628    7.6170 H       1  UNL1        0.0000
     62 C           4.7109    1.9271    7.5462 C.3     1  UNL1        0.0000
     63 C           5.0897    1.1058    8.7787 C.3     1  UNL1        0.0000
     64 H           4.2518    0.4795    9.0770 H       1  UNL1        0.0000
     65 H           5.3481    1.7463    9.6169 H       1  UNL1        0.0000
     66 H           5.9392    0.4628    8.5640 H       1  UNL1        0.0000
     67 C           4.2095    0.9785    6.4567 C.3     1  UNL1        0.0000
     68 H           4.9932    0.2904    6.1576 H       1  UNL1        0.0000
     69 H           3.8802    1.5348    5.5832 H       1  UNL1        0.0000
     70 H           3.3678    0.3944    6.8231 H       1  UNL1        0.0000
     71 C           3.5939    2.9116    7.9054 C.3     1  UNL1        0.0000
     72 H           3.3507    3.5434    7.0537 H       1  UNL1        0.0000
     73 H           3.8948    3.5565    8.7281 H       1  UNL1        0.0000
     74 H           2.6969    2.3742    8.2037 H       1  UNL1        0.0000
     75 C           6.7787    5.5807    5.4287 C.ar    1  UNL1        0.0000
     76 C           5.6823    5.4439    4.5549 C.ar    1  UNL1        0.0000
     77 C           4.5361    6.1843    4.7731 C.ar    1  UNL1        0.0000
     78 H           3.7033    6.1360    4.0919 H       1  UNL1        0.0000
     79 C           4.4492    7.0130    5.8844 C.ar    1  UNL1        0.0000
     80 H           3.5481    7.5843    6.0491 H       1  UNL1        0.0000
     81 C           5.5019    7.1032    6.7711 C.ar    1  UNL1        0.0000
     82 H           5.4266    7.7374    7.6417 H       1  UNL1        0.0000
     83 C           6.6738    6.3955    6.5411 C.ar    1  UNL1        0.0000
     84 H           7.4937    6.4991    7.2344 H       1  UNL1        0.0000
     85 C           9.0505    4.7342    5.8633 C.3     1  UNL1        0.0000
     86 H           9.4193    3.7062    5.8185 H       1  UNL1        0.0000
     87 H           8.7670    4.9219    6.9010 H       1  UNL1        0.0000
     88 C          10.2232    5.6683    5.4798 C.3     1  UNL1        0.0000
     89 C          11.1423    5.7770    6.7001 C.3     1  UNL1        0.0000
     90 H          12.0316    6.3535    6.4566 H       1  UNL1        0.0000
     91 H          11.4512    4.7884    7.0336 H       1  UNL1        0.0000
     92 H          10.6330    6.2691    7.5257 H       1  UNL1        0.0000
     93 C          11.0120    5.0648    4.3162 C.3     1  UNL1        0.0000
     94 H          10.3865    4.9741    3.4328 H       1  UNL1        0.0000
     95 H          11.3907    4.0791    4.5804 H       1  UNL1        0.0000
     96 H          11.8604    5.6986    4.0666 H       1  UNL1        0.0000
     97 C           9.7222    7.0555    5.0804 C.3     1  UNL1        0.0000
     98 H          10.5623    7.6915    4.8100 H       1  UNL1        0.0000
     99 H           9.1848    7.5274    5.8982 H       1  UNL1        0.0000
    100 H           9.0544    6.9866    4.2255 H       1  UNL1        0.0000
    101 C           5.0396    4.4719    2.3728 C.3     1  UNL1        0.0000
    102 H           5.6615    4.2848    1.4914 H       1  UNL1        0.0000
    103 H           4.5531    5.4413    2.2290 H       1  UNL1        0.0000
    104 C           3.9568    3.3693    2.4167 C.3     1  UNL1        0.0000
    105 C           4.6273    2.0140    2.6163 C.3     1  UNL1        0.0000
    106 H           3.8920    1.2116    2.6126 H       1  UNL1        0.0000
    107 H           5.1574    1.9909    3.5679 H       1  UNL1        0.0000
    108 H           5.3393    1.8314    1.8100 H       1  UNL1        0.0000
    109 C           3.2303    3.3773    1.0688 C.3     1  UNL1        0.0000
    110 H           3.9250    3.1753    0.2563 H       1  UNL1        0.0000
    111 H           2.7639    4.3431    0.8869 H       1  UNL1        0.0000
    112 H           2.4551    2.6149    1.0540 H       1  UNL1        0.0000
    113 C           2.9441    3.5959    3.5392 C.3     1  UNL1        0.0000
    114 H           2.2602    2.7511    3.5990 H       1  UNL1        0.0000
    115 H           2.3530    4.4897    3.3544 H       1  UNL1        0.0000
    116 H           3.4471    3.7027    4.4968 H       1  UNL1        0.0000
@<TRIPOS>BOND
     1    28    27    1
     2    26    25    1
     3    27    25   ar
     4    27    29   ar
     5    30    29    1
     6    25    23   ar
     7   110   109    1
     8    29    31   ar
     9   111   109    1
    10   112   109    1
    11   109   104    1
    12    23    24    1
    13    23    22   ar
    14   102   101    1
    15    31    22   ar
    16    31    32    1
    17   108   105    1
    18    22     3    1
    19   103   101    1
    20   101   104    1
    21   101     7    1
    22   104   105    1
    23   104   113    1
    24   106   105    1
    25   105   107    1
    26    21    20    1
    27     1     9    1
    28     1     8    1
    29    19    18    1
    30   115   113    1
    31    94    93    1
    32     7     3    1
    33     7    76    1
    34   113   114    1
    35   113   116    1
    36     3     9    1
    37     3     6    1
    38    10     9    1
    39    20    18   ar
    40    20    11   ar
    41    57    55    1
    42     9     2    1
    43    18    16   ar
    44    96    93    1
    45    78    77    1
    46   100    97    1
    47    93    95    1
    48    93    88    1
    49    53    51    1
    50     8    11    1
    51     8     2    1
    52    76    77   ar
    53    76    75   ar
    54    56    55    1
    55    77    79   ar
    56    55    58    1
    57    55    46    1
    58    11    12   ar
    59    98    97    1
    60    45    43    1
    61     6    75    1
    62     6    85    1
    63    97    88    1
    64    97    99    1
    65    16    17    1
    66    16    14   ar
    67    75    83   ar
    68    54    51    1
    69    88    85    1
    70    88    89    1
    71    51    46    1
    72    51    52    1
    73    69    67    1
    74     2     4    1
    75     2     5    1
    76    86    85    1
    77    46    43    1
    78    46    47    1
    79    85    87    1
    80    43    44    1
    81    43     4    1
    82    79    80    1
    83    79    81   ar
    84    60    59    1
    85    12    14   ar
    86    12    13    1
    87    68    67    1
    88    14    15    1
    89     4    33    1
    90    90    89    1
    91    67    70    1
    92    67    62    1
    93    83    81   ar
    94    83    84    1
    95    89    91    1
    96    89    92    1
    97    81    82    1
    98     5    59    1
    99     5    34    1
   100    59    62    1
   101    59    61    1
   102    72    71    1
   103    50    47    1
   104    47    48    1
   105    47    49    1
   106    62    71    1
   107    62    63    1
   108    33    34   ar
   109    33    41   ar
   110    71    74    1
   111    71    73    1
   112    34    35   ar
   113    42    41    1
   114    66    63    1
   115    41    39   ar
   116    63    64    1
   117    63    65    1
   118    35    36    1
   119    35    37   ar
   120    39    37   ar
   121    39    40    1
   122    37    38    1
