@<TRIPOS>MOLECULE
1
 74 78 0 0 0
SMALL
GASTEIGER

@<TRIPOS>ATOM
      1 P           1.6451    0.9352    3.6916 P.3     1  UNL1        0.0000
      2 SI          2.1292    0.1524    5.7818 Si      1  UNL1        0.0000
      3 N           3.6334   -0.6605    6.0234 N.pl3   1  UNL1        0.0000
      4 N           1.2339   -1.0756    6.6046 N.pl3   1  UNL1        0.0000
      5 C           1.7129    2.4346    4.7392 C.2     1  UNL1        0.0000
      6 C           1.9581    2.0443    6.0112 C.2     1  UNL1        0.0000
      7 C           2.0511    2.9344    7.2072 C.3     1  UNL1        0.0000
      8 H           3.0205    3.4284    7.2520 H       1  UNL1        0.0000
      9 H           1.9333    2.3654    8.1256 H       1  UNL1        0.0000
     10 H           1.2839    3.7073    7.1654 H       1  UNL1        0.0000
     11 C           1.5899    3.7648    4.1648 C.ar    1  UNL1        0.0000
     12 C           0.7621    3.9506    3.0556 C.ar    1  UNL1        0.0000
     13 H           0.2129    3.1063    2.6564 H       1  UNL1        0.0000
     14 C           0.6222    5.1962    2.4760 C.ar    1  UNL1        0.0000
     15 H          -0.0302    5.3216    1.6247 H       1  UNL1        0.0000
     16 C           1.3326    6.2763    2.9731 C.ar    1  UNL1        0.0000
     17 H           1.2327    7.2485    2.5143 H       1  UNL1        0.0000
     18 C           2.1841    6.0992    4.0511 C.ar    1  UNL1        0.0000
     19 H           2.7566    6.9336    4.4292 H       1  UNL1        0.0000
     20 C           2.3098    4.8589    4.6472 C.ar    1  UNL1        0.0000
     21 H           2.9964    4.7312    5.4680 H       1  UNL1        0.0000
     22 C          -0.1208    0.5351    3.5727 C.ar    1  UNL1        0.0000
     23 C          -1.1352    1.3228    4.1093 C.ar    1  UNL1        0.0000
     24 H          -0.8917    2.2523    4.6056 H       1  UNL1        0.0000
     25 C          -2.4537    0.9153    4.0079 C.ar    1  UNL1        0.0000
     26 H          -3.2378    1.5355    4.4181 H       1  UNL1        0.0000
     27 C          -2.7700   -0.2809    3.3849 C.ar    1  UNL1        0.0000
     28 H          -3.8005   -0.5936    3.3082 H       1  UNL1        0.0000
     29 C          -1.7621   -1.0767    2.8611 C.ar    1  UNL1        0.0000
     30 H          -2.0064   -2.0120    2.3798 H       1  UNL1        0.0000
     31 C          -0.4455   -0.6703    2.9518 C.ar    1  UNL1        0.0000
     32 H           0.3512   -1.2875    2.5528 H       1  UNL1        0.0000
     33 C           3.4310   -1.8725    6.6670 C.ar    1  UNL1        0.0000
     34 C           4.3809   -2.8430    6.9308 C.ar    1  UNL1        0.0000
     35 H           5.4082   -2.7047    6.6406 H       1  UNL1        0.0000
     36 C           4.0075   -4.0201    7.5617 C.ar    1  UNL1        0.0000
     37 H           4.7551   -4.7704    7.7695 H       1  UNL1        0.0000
     38 C           2.6899   -4.2351    7.9131 C.ar    1  UNL1        0.0000
     39 H           2.4000   -5.1526    8.4023 H       1  UNL1        0.0000
     40 C           1.7238   -3.2819    7.6265 C.ar    1  UNL1        0.0000
     41 H           0.6977   -3.4828    7.8845 H       1  UNL1        0.0000
     42 C           2.0857   -2.0999    7.0060 C.ar    1  UNL1        0.0000
     43 C           4.8890   -0.3183    5.3976 C.3     1  UNL1        0.0000
     44 H           4.6491    0.2855    4.5141 H       1  UNL1        0.0000
     45 H           5.3710   -1.2361    5.0487 H       1  UNL1        0.0000
     46 C           5.8932    0.4910    6.2480 C.3     1  UNL1        0.0000
     47 C           7.0894    0.8196    5.3505 C.3     1  UNL1        0.0000
     48 H           6.7831    1.4401    4.5120 H       1  UNL1        0.0000
     49 H           7.5392   -0.0892    4.9566 H       1  UNL1        0.0000
     50 H           7.8465    1.3582    5.9154 H       1  UNL1        0.0000
     51 C           6.3765   -0.2916    7.4693 C.3     1  UNL1        0.0000
     52 H           7.0159    0.3402    8.0825 H       1  UNL1        0.0000
     53 H           6.9567   -1.1611    7.1701 H       1  UNL1        0.0000
     54 H           5.5364   -0.6211    8.0753 H       1  UNL1        0.0000
     55 C           5.2385    1.7861    6.7197 C.3     1  UNL1        0.0000
     56 H           4.4327    1.5575    7.4113 H       1  UNL1        0.0000
     57 H           4.8379    2.3396    5.8734 H       1  UNL1        0.0000
     58 H           5.9668    2.4131    7.2297 H       1  UNL1        0.0000
     59 C          -0.2017   -1.2475    6.6112 C.3     1  UNL1        0.0000
     60 H          -0.4242   -2.3140    6.5222 H       1  UNL1        0.0000
     61 H          -0.5954   -0.7576    5.7190 H       1  UNL1        0.0000
     62 C          -0.9647   -0.6711    7.8235 C.3     1  UNL1        0.0000
     63 C          -0.5590   -1.3538    9.1298 C.3     1  UNL1        0.0000
     64 H          -1.0390   -0.8599    9.9722 H       1  UNL1        0.0000
     65 H           0.5180   -1.3054    9.2699 H       1  UNL1        0.0000
     66 H          -0.8653   -2.3970    9.1356 H       1  UNL1        0.0000
     67 C          -2.4572   -0.8974    7.5676 C.3     1  UNL1        0.0000
     68 H          -2.6732   -1.9570    7.4488 H       1  UNL1        0.0000
     69 H          -2.7719   -0.3816    6.6628 H       1  UNL1        0.0000
     70 H          -3.0440   -0.5211    8.4021 H       1  UNL1        0.0000
     71 C          -0.6911    0.8257    7.9406 C.3     1  UNL1        0.0000
     72 H          -1.3266    1.2690    8.7039 H       1  UNL1        0.0000
     73 H          -0.8810    1.3288    6.9958 H       1  UNL1        0.0000
     74 H           0.3446    0.9857    8.2203 H       1  UNL1        0.0000
@<TRIPOS>BOND
     1    15    14    1
     2    30    29    1
     3    14    16   ar
     4    14    12   ar
     5    17    16    1
     6    32    31    1
     7    13    12    1
     8    29    31   ar
     9    29    27   ar
    10    31    22   ar
    11    16    18   ar
    12    12    11   ar
    13    28    27    1
    14    27    25   ar
    15    22     1    1
    16    22    23   ar
    17     1     5    1
    18     1     2    1
    19    25    23   ar
    20    25    26    1
    21    18    19    1
    22    18    20   ar
    23    23    24    1
    24    11    20   ar
    25    11     5    1
    26    48    47    1
    27    44    43    1
    28    20    21    1
    29     5     6    2
    30    49    47    1
    31    45    43    1
    32    47    50    1
    33    47    46    1
    34    43     3    1
    35    43    46    1
    36    61    59    1
    37     2     6    1
    38     2     3    1
    39     2     4    1
    40    57    55    1
    41     6     7    1
    42     3    33    1
    43    46    55    1
    44    46    51    1
    45    60    59    1
    46     4    59    1
    47     4    42    1
    48    59    62    1
    49    35    34    1
    50    69    67    1
    51    33    34   ar
    52    33    42   ar
    53    55    58    1
    54    55    56    1
    55    34    36   ar
    56    73    71    1
    57    42    40   ar
    58    10     7    1
    59    53    51    1
    60     7     8    1
    61     7     9    1
    62    68    67    1
    63    51    54    1
    64    51    52    1
    65    36    37    1
    66    36    38   ar
    67    67    62    1
    68    67    70    1
    69    40    41    1
    70    40    38   ar
    71    62    71    1
    72    62    63    1
    73    38    39    1
    74    71    74    1
    75    71    72    1
    76    63    66    1
    77    63    65    1
    78    63    64    1
