@<TRIPOS>MOLECULE
1
 109 115 0 0 0
SMALL
GASTEIGER

@<TRIPOS>ATOM
      1 P           5.0329   15.2017   -1.6989 P.3     1  UNL1        0.0000
      2 SI          6.2826   17.1598   -0.4655 Si      1  UNL1        0.0000
      3 SI          6.2825   15.1575    1.4282 Si      1  UNL1        0.0000
      4 N           7.5649   18.2546   -0.0787 N.pl3   1  UNL1        0.0000
      5 N           5.8284   17.0199    1.4061 N.pl3   1  UNL1        0.0000
      6 N           7.7833   15.0651    2.2777 N.pl3   1  UNL1        0.0000
      7 N           5.4044   14.4008    2.7031 N.pl3   1  UNL1        0.0000
      8 C           4.8265   16.9902   -1.5358 C.3     1  UNL1        0.0000
      9 C           6.4025   15.2318   -0.4305 C.3     1  UNL1        0.0000
     10 H           7.2383   14.6756   -0.8379 H       1  UNL1        0.0000
     11 C           3.5368   14.4770   -0.9013 C.3     1  UNL1        0.0000
     12 H           3.6884   13.4163   -0.7069 H       1  UNL1        0.0000
     13 H           2.7093   14.5819   -1.6040 H       1  UNL1        0.0000
     14 H           3.2811   15.0051    0.0162 H       1  UNL1        0.0000
     15 C           4.2788   17.7785   -2.6014 C.ar    1  UNL1        0.0000
     16 C           3.3546   17.1986   -3.4788 C.ar    1  UNL1        0.0000
     17 H           3.0791   16.1626   -3.3241 H       1  UNL1        0.0000
     18 C           2.7924   17.9197   -4.5105 C.ar    1  UNL1        0.0000
     19 H           2.0892   17.4409   -5.1776 H       1  UNL1        0.0000
     20 C           3.1252   19.2523   -4.6935 C.ar    1  UNL1        0.0000
     21 H           2.6883   19.8191   -5.5018 H       1  UNL1        0.0000
     22 C           4.0293   19.8488   -3.8279 C.ar    1  UNL1        0.0000
     23 H           4.2983   20.8874   -3.9631 H       1  UNL1        0.0000
     24 C           4.5996   19.1267   -2.8013 C.ar    1  UNL1        0.0000
     25 H           5.3188   19.5963   -2.1429 H       1  UNL1        0.0000
     26 C           7.7422   18.4423    1.2783 C.ar    1  UNL1        0.0000
     27 C           6.8168   17.7820    2.0974 C.ar    1  UNL1        0.0000
     28 C           6.9337   17.8205    3.4719 C.ar    1  UNL1        0.0000
     29 H           6.2388   17.2716    4.0881 H       1  UNL1        0.0000
     30 C           7.9493   18.5594    4.0579 C.ar    1  UNL1        0.0000
     31 H           8.0437   18.5829    5.1320 H       1  UNL1        0.0000
     32 C           8.8336   19.2594    3.2574 C.ar    1  UNL1        0.0000
     33 H           9.6194   19.8470    3.7078 H       1  UNL1        0.0000
     34 C           8.7383   19.2050    1.8773 C.ar    1  UNL1        0.0000
     35 H           9.4511   19.7455    1.2777 H       1  UNL1        0.0000
     36 C           8.2015   19.0864   -1.0735 C.3     1  UNL1        0.0000
     37 H           8.4910   20.0356   -0.6164 H       1  UNL1        0.0000
     38 H           7.4499   19.2997   -1.8368 H       1  UNL1        0.0000
     39 C           9.4181   18.4638   -1.7898 C.3     1  UNL1        0.0000
     40 C           9.0426   17.1012   -2.3690 C.3     1  UNL1        0.0000
     41 H           8.1269   17.1645   -2.9546 H       1  UNL1        0.0000
     42 H           8.8922   16.3756   -1.5739 H       1  UNL1        0.0000
     43 H           9.8374   16.7339   -3.0141 H       1  UNL1        0.0000
     44 C          10.6038   18.3024   -0.8366 C.3     1  UNL1        0.0000
     45 H          10.9693   19.2726   -0.5064 H       1  UNL1        0.0000
     46 H          11.4208   17.7923   -1.3425 H       1  UNL1        0.0000
     47 H          10.3245   17.7196    0.0379 H       1  UNL1        0.0000
     48 C           9.8088   19.4066   -2.9312 C.3     1  UNL1        0.0000
     49 H          10.0191   20.4057   -2.5549 H       1  UNL1        0.0000
     50 H           9.0051   19.4753   -3.6602 H       1  UNL1        0.0000
     51 H          10.6982   19.0378   -3.4361 H       1  UNL1        0.0000
     52 C           4.4348   17.2594    1.8119 C.3     1  UNL1        0.0000
     53 H           4.2518   16.7577    2.7674 H       1  UNL1        0.0000
     54 H           3.8444   16.7514    1.0447 H       1  UNL1        0.0000
     55 C           3.8876   18.7021    1.9207 C.3     1  UNL1        0.0000
     56 C           2.3658   18.5844    1.7525 C.3     1  UNL1        0.0000
     57 H           2.1170   18.2250    0.7567 H       1  UNL1        0.0000
     58 H           1.8960   19.5549    1.8887 H       1  UNL1        0.0000
     59 H           1.9473   17.8986    2.4866 H       1  UNL1        0.0000
     60 C           4.4253   19.6196    0.8273 C.3     1  UNL1        0.0000
     61 H           4.1996   19.2145   -0.1542 H       1  UNL1        0.0000
     62 H           5.4986   19.7589    0.9215 H       1  UNL1        0.0000
     63 H           3.9542   20.5967    0.9086 H       1  UNL1        0.0000
     64 C           4.1691   19.3266    3.2910 C.3     1  UNL1        0.0000
     65 H           3.8490   18.6664    4.0948 H       1  UNL1        0.0000
     66 H           3.6191   20.2605    3.3855 H       1  UNL1        0.0000
     67 H           5.2246   19.5461    3.4200 H       1  UNL1        0.0000
     68 C           7.5296   14.7999    3.6186 C.ar    1  UNL1        0.0000
     69 C           6.2022   14.4011    3.8542 C.ar    1  UNL1        0.0000
     70 C           5.7704   14.1500    5.1428 C.ar    1  UNL1        0.0000
     71 H           4.7497   13.8622    5.3382 H       1  UNL1        0.0000
     72 C           6.6571   14.2851    6.2009 C.ar    1  UNL1        0.0000
     73 H           6.3177   14.0874    7.2060 H       1  UNL1        0.0000
     74 C           7.9591   14.6873    5.9719 C.ar    1  UNL1        0.0000
     75 H           8.6411   14.8076    6.7996 H       1  UNL1        0.0000
     76 C           8.3988   14.9515    4.6841 C.ar    1  UNL1        0.0000
     77 H           9.4092   15.2916    4.5281 H       1  UNL1        0.0000
     78 C           9.1103   15.3382    1.7859 C.3     1  UNL1        0.0000
     79 H           9.6397   15.9552    2.5185 H       1  UNL1        0.0000
     80 H           9.0013   15.9328    0.8759 H       1  UNL1        0.0000
     81 C           9.9744   14.0996    1.4419 C.3     1  UNL1        0.0000
     82 C           9.3794   13.3466    0.2521 C.3     1  UNL1        0.0000
     83 H           9.3861   13.9660   -0.6413 H       1  UNL1        0.0000
     84 H           8.3585   13.0354    0.4623 H       1  UNL1        0.0000
     85 H           9.9671   12.4561    0.0414 H       1  UNL1        0.0000
     86 C          10.0899   13.1391    2.6260 C.3     1  UNL1        0.0000
     87 H           9.1089   12.8005    2.9497 H       1  UNL1        0.0000
     88 H          10.5870   13.6116    3.4686 H       1  UNL1        0.0000
     89 H          10.6731   12.2674    2.3370 H       1  UNL1        0.0000
     90 C          11.3694   14.6062    1.0635 C.3     1  UNL1        0.0000
     91 H          11.3172   15.2769    0.2092 H       1  UNL1        0.0000
     92 H          12.0125   13.7700    0.8011 H       1  UNL1        0.0000
     93 H          11.8269   15.1411    1.8934 H       1  UNL1        0.0000
     94 C           4.2258   13.5744    2.6151 C.3     1  UNL1        0.0000
     95 H           3.6301   13.9562    1.7867 H       1  UNL1        0.0000
     96 H           3.6333   13.6882    3.5273 H       1  UNL1        0.0000
     97 C           4.4853   12.0655    2.3724 C.3     1  UNL1        0.0000
     98 C           5.5591   11.8611    1.3051 C.3     1  UNL1        0.0000
     99 H           5.6175   10.8107    1.0314 H       1  UNL1        0.0000
    100 H           6.5326   12.1665    1.6817 H       1  UNL1        0.0000
    101 H           5.3436   12.4346    0.4068 H       1  UNL1        0.0000
    102 C           3.1651   11.4454    1.9038 C.3     1  UNL1        0.0000
    103 H           3.2743   10.3699    1.7911 H       1  UNL1        0.0000
    104 H           2.8577   11.8571    0.9454 H       1  UNL1        0.0000
    105 H           2.3742   11.6336    2.6269 H       1  UNL1        0.0000
    106 C           4.9301   11.3639    3.6578 C.3     1  UNL1        0.0000
    107 H           5.0847   10.3045    3.4655 H       1  UNL1        0.0000
    108 H           4.1742   11.4592    4.4342 H       1  UNL1        0.0000
    109 H           5.8624   11.7818    4.0284 H       1  UNL1        0.0000
@<TRIPOS>BOND
     1    21    20    1
     2    19    18    1
     3    20    18   ar
     4    20    22   ar
     5    18    16   ar
     6    23    22    1
     7    22    24   ar
     8    50    48    1
     9    16    17    1
    10    16    15   ar
    11    51    48    1
    12    43    40    1
    13    41    40    1
    14    48    49    1
    15    48    39    1
    16    24    15   ar
    17    24    25    1
    18    15     8    1
    19    40    39    1
    20    40    42    1
    21    38    36    1
    22    39    36    1
    23    39    44    1
    24     1     8    1
    25     1    11    1
    26     1     9    1
    27    13    11    1
    28     8     2    1
    29    46    44    1
    30    36    37    1
    31    36     4    1
    32    11    12    1
    33    11    14    1
    34    10     9    1
    35    44    45    1
    36    44    47    1
    37    83    82    1
    38     2     9    1
    39     2     4    1
    40     2     5    1
    41     9     3    1
    42    61    60    1
    43     4    26    1
    44    85    82    1
    45    91    90    1
    46    82    84    1
    47    82    81    1
    48   101    98    1
    49    57    56    1
    50    92    90    1
    51    60    63    1
    52    60    62    1
    53    60    55    1
    54    80    78    1
    55   104   102    1
    56    99    98    1
    57    54    52    1
    58    90    81    1
    59    90    93    1
    60    35    34    1
    61    26    34   ar
    62    26    27   ar
    63    98   100    1
    64    98    97    1
    65     5     3    1
    66     5    52    1
    67     5    27    1
    68     3     6    1
    69     3     7    1
    70    81    78    1
    71    81    86    1
    72    56    58    1
    73    56    55    1
    74    56    59    1
    75    78     6    1
    76    78    79    1
    77    95    94    1
    78   103   102    1
    79    52    55    1
    80    52    53    1
    81    34    32   ar
    82   102    97    1
    83   102   105    1
    84    55    64    1
    85    27    28   ar
    86     6    68    1
    87    89    86    1
    88    97    94    1
    89    97   106    1
    90    94     7    1
    91    94    96    1
    92    86    87    1
    93    86    88    1
    94     7    69    1
    95    32    33    1
    96    32    30   ar
    97    64    66    1
    98    64    67    1
    99    64    65    1
   100   107   106    1
   101    28    30   ar
   102    28    29    1
   103    68    69   ar
   104    68    76   ar
   105   106   109    1
   106   106   108    1
   107    69    70   ar
   108    30    31    1
   109    77    76    1
   110    76    74   ar
   111    70    71    1
   112    70    72   ar
   113    74    72   ar
   114    74    75    1
   115    72    73    1
