@<TRIPOS>MOLECULE
1
 43 43 0 0 0
SMALL
GASTEIGER

@<TRIPOS>ATOM
      1 P           9.3304    7.0518   12.3194 P.3     1  UNL1        0.0000
      2 H           9.1083    5.9704   11.4571 H       1  UNL1        0.0000
      3 SI          9.4999    7.2223   15.4291 Si      1  UNL1        0.0000
      4 SI          7.2567    5.3638   13.8622 Si      1  UNL1        0.0000
      5 N          11.0051    7.0986   12.1376 N.pl3   1  UNL1        0.0000
      6 H          11.4136    8.0196   12.2477 H       1  UNL1        0.0000
      7 C           9.0103    6.1751   13.8906 C.3     1  UNL1        0.0000
      8 H           9.7267    5.3454   13.8729 H       1  UNL1        0.0000
      9 C           6.4654    5.4640   12.1306 C.3     1  UNL1        0.0000
     10 H           6.9591    4.8162   11.4121 H       1  UNL1        0.0000
     11 H           6.5042    6.4802   11.7431 H       1  UNL1        0.0000
     12 H           5.4211    5.1683   12.1661 H       1  UNL1        0.0000
     13 C           6.0341    6.1336   15.1006 C.3     1  UNL1        0.0000
     14 H           5.1082    5.5670   15.0941 H       1  UNL1        0.0000
     15 H           5.7877    7.1586   14.8489 H       1  UNL1        0.0000
     16 H           6.4158    6.1208   16.1151 H       1  UNL1        0.0000
     17 C           7.5384    3.5286   14.3104 C.3     1  UNL1        0.0000
     18 H           6.5957    2.9935   14.3534 H       1  UNL1        0.0000
     19 H           8.0158    3.4278   15.2799 H       1  UNL1        0.0000
     20 H           8.1666    3.0230   13.5830 H       1  UNL1        0.0000
     21 C           8.3450    8.7013   15.7512 C.3     1  UNL1        0.0000
     22 H           7.4570    8.4103   16.3008 H       1  UNL1        0.0000
     23 H           8.0235    9.1718   14.8257 H       1  UNL1        0.0000
     24 H           8.8582    9.4567   16.3389 H       1  UNL1        0.0000
     25 C           9.4796    6.0316   16.9192 C.3     1  UNL1        0.0000
     26 H           9.6684    6.5742   17.8391 H       1  UNL1        0.0000
     27 H          10.2477    5.2702   16.8281 H       1  UNL1        0.0000
     28 H           8.5274    5.5245   17.0276 H       1  UNL1        0.0000
     29 C          11.2899    7.8715   15.2695 C.3     1  UNL1        0.0000
     30 H          11.3589    8.7074   14.5800 H       1  UNL1        0.0000
     31 H          11.9751    7.0985   14.9325 H       1  UNL1        0.0000
     32 H          11.6469    8.2225   16.2334 H       1  UNL1        0.0000
     33 C          11.9289    6.0659   12.2973 C.ar    1  UNL1        0.0000
     34 C          11.5672    4.7297   12.1529 C.ar    1  UNL1        0.0000
     35 H          10.5454    4.4741   11.9124 H       1  UNL1        0.0000
     36 C          12.5147    3.7321   12.2873 C.ar    1  UNL1        0.0000
     37 H          12.2183    2.7000   12.1715 H       1  UNL1        0.0000
     38 C          13.8337    4.0469   12.5654 C.ar    1  UNL1        0.0000
     39 H          14.5689    3.2647   12.6736 H       1  UNL1        0.0000
     40 C          14.2032    5.3754   12.6952 C.ar    1  UNL1        0.0000
     41 H          15.2309    5.6345   12.9019 H       1  UNL1        0.0000
     42 C          13.2617    6.3775   12.5637 C.ar    1  UNL1        0.0000
     43 H          13.5553    7.4137   12.6610 H       1  UNL1        0.0000
@<TRIPOS>BOND
     1    10     9    1
     2     2     1    1
     3    11     9    1
     4    35    34    1
     5     9    12    1
     6     9     4    1
     7     5     6    1
     8     5    33    1
     9     5     1    1
    10    34    36   ar
    11    34    33   ar
    12    37    36    1
    13    36    38   ar
    14    33    42   ar
    15     1     7    1
    16    42    43    1
    17    42    40   ar
    18    38    39    1
    19    38    40   ar
    20    40    41    1
    21    20    17    1
    22     4     7    1
    23     4    17    1
    24     4    13    1
    25     8     7    1
    26     7     3    1
    27    17    18    1
    28    17    19    1
    29    30    29    1
    30    23    21    1
    31    15    13    1
    32    31    29    1
    33    14    13    1
    34    13    16    1
    35    29     3    1
    36    29    32    1
    37     3    21    1
    38     3    25    1
    39    21    22    1
    40    21    24    1
    41    27    25    1
    42    25    28    1
    43    25    26    1
