@<TRIPOS>MOLECULE
1
 42 41 0 0 0
SMALL
GASTEIGER

@<TRIPOS>ATOM
      1 P           5.8598   -2.8472    3.7977 P.3     1  UNL1        0.0000
      2 H           4.8723   -3.8707    3.7508 H       1  UNL1        0.0000
      3 SI          4.9660   -3.6288    0.9473 Si      1  UNL1        0.0000
      4 SI          7.4676   -1.5117    1.5561 Si      1  UNL1        0.0000
      5 C           5.7828   -2.2966    2.0678 C.3     1  UNL1        0.0000
      6 H           5.0682   -1.4671    2.0936 H       1  UNL1        0.0000
      7 C           3.1015   -3.6497    1.3566 C.3     1  UNL1        0.0000
      8 H           2.5973   -4.4824    0.8756 H       1  UNL1        0.0000
      9 H           2.6200   -2.7373    1.0160 H       1  UNL1        0.0000
     10 H           2.9206   -3.7292    2.4248 H       1  UNL1        0.0000
     11 C           5.1607   -3.1890   -0.8951 C.3     1  UNL1        0.0000
     12 H           4.6726   -3.9383   -1.5091 H       1  UNL1        0.0000
     13 H           6.1983   -3.1358   -1.2040 H       1  UNL1        0.0000
     14 H           4.6994   -2.2339   -1.1212 H       1  UNL1        0.0000
     15 C           5.7020   -5.3671    1.2509 C.3     1  UNL1        0.0000
     16 H           5.5962   -5.6726    2.2883 H       1  UNL1        0.0000
     17 H           6.7531   -5.4252    0.9841 H       1  UNL1        0.0000
     18 H           5.1785   -6.1025    0.6471 H       1  UNL1        0.0000
     19 C           8.3846   -0.6745    2.9984 C.3     1  UNL1        0.0000
     20 H           9.3839   -0.3748    2.6954 H       1  UNL1        0.0000
     21 H           8.4817   -1.3504    3.8413 H       1  UNL1        0.0000
     22 H           7.8713    0.2171    3.3445 H       1  UNL1        0.0000
     23 C           7.0815   -0.1869    0.2394 C.3     1  UNL1        0.0000
     24 H           6.4127    0.5750    0.6276 H       1  UNL1        0.0000
     25 H           6.6194   -0.6119   -0.6444 H       1  UNL1        0.0000
     26 H           7.9930    0.3103   -0.0748 H       1  UNL1        0.0000
     27 C           8.6443   -2.8274    0.8197 C.3     1  UNL1        0.0000
     28 H           9.4258   -2.3373    0.2482 H       1  UNL1        0.0000
     29 H           8.1357   -3.5128    0.1505 H       1  UNL1        0.0000
     30 H           9.1308   -3.4113    1.5940 H       1  UNL1        0.0000
     31 C           7.7974   -4.2931    5.0470 C.3     1  UNL1        0.0000
     32 H           7.6077   -3.5625    5.8450 H       1  UNL1        0.0000
     33 C           7.0756   -5.5948    5.3891 C.3     1  UNL1        0.0000
     34 H           6.0039   -5.4146    5.4677 H       1  UNL1        0.0000
     35 H           7.4287   -5.9887    6.3383 H       1  UNL1        0.0000
     36 H           7.2503   -6.3417    4.6157 H       1  UNL1        0.0000
     37 C           9.3016   -4.5104    4.9112 C.3     1  UNL1        0.0000
     38 H           9.5104   -5.2383    4.1290 H       1  UNL1        0.0000
     39 H           9.7147   -4.8788    5.8460 H       1  UNL1        0.0000
     40 H           9.7938   -3.5753    4.6567 H       1  UNL1        0.0000
     41 N           7.2969   -3.6983    3.8159 N.3     1  UNL1        0.0000
     42 H           7.4044   -4.3200    3.0190 H       1  UNL1        0.0000
@<TRIPOS>BOND
     1    12    11    1
     2    13    11    1
     3    14    11    1
     4    11     3    1
     5    25    23    1
     6    26    23    1
     7    29    27    1
     8    23    24    1
     9    23     4    1
    10    28    27    1
    11    18    15    1
    12    27     4    1
    13    27    30    1
    14     8     7    1
    15     3    15    1
    16     3     7    1
    17     3     5    1
    18    17    15    1
    19     9     7    1
    20    15    16    1
    21     7    10    1
    22     4     5    1
    23     4    19    1
    24     5     6    1
    25     5     1    1
    26    20    19    1
    27    19    22    1
    28    19    21    1
    29    42    41    1
    30     2     1    1
    31     1    41    1
    32    41    31    1
    33    38    37    1
    34    36    33    1
    35    40    37    1
    36    37    31    1
    37    37    39    1
    38    31    33    1
    39    31    32    1
    40    33    34    1
    41    33    35    1
