@<TRIPOS>MOLECULE
1
 53 54 0 0 0
SMALL
GASTEIGER

@<TRIPOS>ATOM
      1 P           2.5218    4.2686    9.7333 P.3     1  UNL1        0.0000
      2 H           2.6646    3.5863    8.5016 H       1  UNL1        0.0000
      3 SI          0.2354    2.1927    9.6742 Si      1  UNL1        0.0000
      4 SI          1.5138    3.2782   12.5327 Si      1  UNL1        0.0000
      5 N           4.1241    4.2178   10.2833 N.pl3   1  UNL1        0.0000
      6 C           1.7337    2.9089   10.6518 C.3     1  UNL1        0.0000
      7 H           2.4765    2.1047   10.6212 H       1  UNL1        0.0000
      8 C           0.7376    1.7620    7.8797 C.3     1  UNL1        0.0000
      9 H          -0.0215    1.1372    7.4180 H       1  UNL1        0.0000
     10 H           1.6734    1.2113    7.8380 H       1  UNL1        0.0000
     11 H           0.8437    2.6474    7.2605 H       1  UNL1        0.0000
     12 C          -0.1860    0.5333   10.5185 C.3     1  UNL1        0.0000
     13 H          -0.4175    0.6533   11.5704 H       1  UNL1        0.0000
     14 H           0.6372   -0.1703   10.4448 H       1  UNL1        0.0000
     15 H          -1.0473    0.0759   10.0440 H       1  UNL1        0.0000
     16 C          -1.2957    3.3186    9.6075 C.3     1  UNL1        0.0000
     17 H          -1.0695    4.2778    9.1495 H       1  UNL1        0.0000
     18 H          -1.7088    3.5111   10.5908 H       1  UNL1        0.0000
     19 H          -2.0734    2.8485    9.0128 H       1  UNL1        0.0000
     20 C           2.3718    1.8148   13.4119 C.3     1  UNL1        0.0000
     21 H           2.3230    1.9221   14.4904 H       1  UNL1        0.0000
     22 H           3.4205    1.7431   13.1360 H       1  UNL1        0.0000
     23 H           1.9016    0.8704   13.1568 H       1  UNL1        0.0000
     24 C          -0.2998    3.3789   13.1094 C.3     1  UNL1        0.0000
     25 H          -0.8872    2.5253   12.7911 H       1  UNL1        0.0000
     26 H          -0.7921    4.2756   12.7503 H       1  UNL1        0.0000
     27 H          -0.3303    3.4080   14.1942 H       1  UNL1        0.0000
     28 C           2.3667    4.8927   13.0639 C.3     1  UNL1        0.0000
     29 H           2.0745    5.1743   14.0714 H       1  UNL1        0.0000
     30 H           2.0920    5.7097   12.4001 H       1  UNL1        0.0000
     31 H           3.4470    4.7891   13.0529 H       1  UNL1        0.0000
     32 C           4.8445    3.0185   10.4873 C.ar    1  UNL1        0.0000
     33 C           5.7979    2.9898   11.5033 C.ar    1  UNL1        0.0000
     34 H           5.9744    3.8828   12.0846 H       1  UNL1        0.0000
     35 C           6.5099    1.8344   11.7603 C.ar    1  UNL1        0.0000
     36 H           7.2433    1.8247   12.5527 H       1  UNL1        0.0000
     37 C           6.2813    0.6908   11.0120 C.ar    1  UNL1        0.0000
     38 H           6.8324   -0.2135   11.2197 H       1  UNL1        0.0000
     39 C           5.3507    0.7192    9.9882 C.ar    1  UNL1        0.0000
     40 H           5.1809   -0.1611    9.3858 H       1  UNL1        0.0000
     41 C           4.6402    1.8759    9.7214 C.ar    1  UNL1        0.0000
     42 H           3.9440    1.9036    8.8946 H       1  UNL1        0.0000
     43 C           4.9578    5.3486   10.0311 C.ar    1  UNL1        0.0000
     44 C           5.8310    5.3233    8.9486 C.ar    1  UNL1        0.0000
     45 H           5.8554    4.4514    8.3096 H       1  UNL1        0.0000
     46 C           6.6468    6.4082    8.6889 C.ar    1  UNL1        0.0000
     47 H           7.3132    6.3858    7.8398 H       1  UNL1        0.0000
     48 C           6.5989    7.5254    9.5065 C.ar    1  UNL1        0.0000
     49 H           7.2278    8.3769    9.2954 H       1  UNL1        0.0000
     50 C           5.7496    7.5430   10.5987 C.ar    1  UNL1        0.0000
     51 H           5.7195    8.4040   11.2497 H       1  UNL1        0.0000
     52 C           4.9373    6.4545   10.8688 C.ar    1  UNL1        0.0000
     53 H           4.3105    6.4430   11.7457 H       1  UNL1        0.0000
@<TRIPOS>BOND
     1    11     8    1
     2     9     8    1
     3    10     8    1
     4    47    46    1
     5     8     3    1
     6    45    44    1
     7     2     1    1
     8    46    44   ar
     9    46    48   ar
    10    42    41    1
    11    44    43   ar
    12    19    16    1
    13    17    16    1
    14    49    48    1
    15    40    39    1
    16    48    50   ar
    17    16     3    1
    18    16    18    1
    19     3    12    1
    20     3     6    1
    21    41    39   ar
    22    41    32   ar
    23     1     5    1
    24     1     6    1
    25    39    37   ar
    26    43     5    1
    27    43    52   ar
    28    15    12    1
    29     5    32    1
    30    14    12    1
    31    32    33   ar
    32    12    13    1
    33    50    52   ar
    34    50    51    1
    35     7     6    1
    36     6     4    1
    37    52    53    1
    38    37    38    1
    39    37    35   ar
    40    33    35   ar
    41    33    34    1
    42    35    36    1
    43    30    28    1
    44     4    28    1
    45     4    24    1
    46     4    20    1
    47    26    24    1
    48    25    24    1
    49    31    28    1
    50    28    29    1
    51    24    27    1
    52    22    20    1
    53    23    20    1
    54    20    21    1
