@<TRIPOS>MOLECULE
1
 28 27 0 0 0
SMALL
GASTEIGER

@<TRIPOS>ATOM
      1 P          -2.8328   11.5220   10.5061 P.3     1  UNL1        0.0000
      2 SI          0.1725   12.5511   11.3136 Si      1  UNL1        0.0000
      3 SI         -2.7491   13.7815   12.3017 Si      1  UNL1        0.0000
      4 C          -1.7365   12.4807   11.3128 C.2     1  UNL1        0.0000
      5 C           0.7221   12.0481   13.0719 C.3     1  UNL1        0.0000
      6 C           1.2217   11.4948   10.1203 C.3     1  UNL1        0.0000
      7 C           0.6185   14.3636   10.9072 C.3     1  UNL1        0.0000
      8 C          -4.3871   12.9957   12.8908 C.3     1  UNL1        0.0000
      9 C          -1.8743   14.4691   13.8506 C.3     1  UNL1        0.0000
     10 C          -3.1442   15.2067   11.0933 C.3     1  UNL1        0.0000
     11 H           1.8036   12.0872   13.1578 H       1  UNL1        0.0000
     12 H           0.4117   11.0324   13.2956 H       1  UNL1        0.0000
     13 H           0.3071   12.6962   13.8340 H       1  UNL1        0.0000
     14 H           0.9946   11.6871    9.0769 H       1  UNL1        0.0000
     15 H           2.2714   11.7361   10.2679 H       1  UNL1        0.0000
     16 H           1.1110   10.4303   10.2996 H       1  UNL1        0.0000
     17 H           0.1592   15.0645   11.5945 H       1  UNL1        0.0000
     18 H           0.2951   14.6243    9.9043 H       1  UNL1        0.0000
     19 H           1.6927   14.5121   10.9537 H       1  UNL1        0.0000
     20 H          -5.0430   12.7837   12.0520 H       1  UNL1        0.0000
     21 H          -4.9207   13.6510   13.5723 H       1  UNL1        0.0000
     22 H          -4.2033   12.0586   13.4078 H       1  UNL1        0.0000
     23 H          -0.8932   14.8728   13.6296 H       1  UNL1        0.0000
     24 H          -2.4676   15.2686   14.2828 H       1  UNL1        0.0000
     25 H          -1.7573   13.7045   14.6112 H       1  UNL1        0.0000
     26 H          -3.6065   14.8216   10.1892 H       1  UNL1        0.0000
     27 H          -3.8245   15.9267   11.5367 H       1  UNL1        0.0000
     28 H          -2.2456   15.7381   10.7990 H       1  UNL1        0.0000
@<TRIPOS>BOND
     1    14     6    1
     2    18     7    1
     3     6    15    1
     4     6    16    1
     5     6     2    1
     6    26    10    1
     7     1     4    2
     8    28    10    1
     9     7    19    1
    10     7     2    1
    11     7    17    1
    12    10    27    1
    13    10     3    1
    14     4     2    1
    15     4     3    1
    16     2     5    1
    17    20     8    1
    18     3     8    1
    19     3     9    1
    20     8    22    1
    21     8    21    1
    22     5    11    1
    23     5    12    1
    24     5    13    1
    25    23     9    1
    26     9    24    1
    27     9    25    1
