@<TRIPOS>MOLECULE
1
 34 36 0 0 0
SMALL
GASTEIGER

@<TRIPOS>ATOM
      1 P          -1.1810   19.0671    4.9790 P.3     1  UNL1       -0.0131
      2 C          -2.3831   20.4387    5.2091 C.ar    1  UNL1       -0.0147
      3 C          -3.2264   20.8152    4.1737 C.ar    1  UNL1       -0.0535
      4 C          -4.1892   21.7901    4.3707 C.ar    1  UNL1       -0.0611
      5 C          -4.3212   22.3932    5.6090 C.ar    1  UNL1       -0.0617
      6 C          -3.4958   22.0081    6.6539 C.ar    1  UNL1       -0.0611
      7 C          -2.5388   21.0311    6.4602 C.ar    1  UNL1       -0.0535
      8 C           0.5438   20.9950    6.0060 C.ar    1  UNL1       -0.0535
      9 C          -1.9796   17.7429    7.4166 C.ar    1  UNL1       -0.0535
     10 C          -2.1557   17.9431    6.0532 C.ar    1  UNL1       -0.0147
     11 C          -2.8482   16.9156    8.1084 C.ar    1  UNL1       -0.0611
     12 C          -3.2347   17.3430    5.4087 C.ar    1  UNL1       -0.0535
     13 C          -4.1104   16.5346    6.1054 C.ar    1  UNL1       -0.0611
     14 C           0.9810   18.7540    6.7457 C.ar    1  UNL1       -0.0535
     15 C           2.0904   19.2016    7.4386 C.ar    1  UNL1       -0.0611
     16 C           1.6569   21.4384    6.6951 C.ar    1  UNL1       -0.0611
     17 C           2.4283   20.5450    7.4208 C.ar    1  UNL1       -0.0617
     18 C           0.1779   19.6508    6.0445 C.ar    1  UNL1       -0.0147
     19 C          -3.9090   16.3087    7.4579 C.ar    1  UNL1       -0.0617
     20 H          -3.1240   20.3396    3.2082 H       1  UNL1        0.0624
     21 H          -4.8365   22.0778    3.5551 H       1  UNL1        0.0618
     22 H          -5.0688   23.1574    5.7640 H       1  UNL1        0.0618
     23 H          -3.6037   22.4679    7.6258 H       1  UNL1        0.0618
     24 H          -1.9056   20.7277    7.2826 H       1  UNL1        0.0624
     25 H          -0.0527   21.6925    5.4324 H       1  UNL1        0.0624
     26 H          -1.1702   18.2265    7.9443 H       1  UNL1        0.0624
     27 H          -2.6988   16.7522    9.1664 H       1  UNL1        0.0618
     28 H          -3.3724   17.5259    4.3479 H       1  UNL1        0.0624
     29 H          -4.9455   16.0788    5.5949 H       1  UNL1        0.0618
     30 H           0.7422   17.6996    6.7376 H       1  UNL1        0.0624
     31 H           2.6999   18.4980    7.9879 H       1  UNL1        0.0618
     32 H           1.9273   22.4842    6.6630 H       1  UNL1        0.0618
     33 H           3.2969   20.8926    7.9606 H       1  UNL1        0.0618
     34 H          -4.5834   15.6676    8.0063 H       1  UNL1        0.0618
@<TRIPOS>BOND
     1    20     3    1
     2    21     4    1
     3     3     4   ar
     4     3     2   ar
     5    28    12    1
     6     4     5   ar
     7     1     2    1
     8     1    18    1
     9     1    10    1
    10     2     7   ar
    11    12    10   ar
    12    12    13   ar
    13    25     8    1
    14    29    13    1
    15     5    22    1
    16     5     6   ar
    17     8    18   ar
    18     8    16   ar
    19    18    14   ar
    20    10     9   ar
    21    13    19   ar
    22     7     6   ar
    23     7    24    1
    24     6    23    1
    25    32    16    1
    26    16    17   ar
    27    30    14    1
    28    14    15   ar
    29     9    26    1
    30     9    11   ar
    31    17    15   ar
    32    17    33    1
    33    15    31    1
    34    19    34    1
    35    19    11   ar
    36    11    27    1
