@<TRIPOS>MOLECULE
1
 34 36 0 0 0
SMALL
GASTEIGER

@<TRIPOS>ATOM
      1 P          -0.8080   16.0766    2.7768 P.3     1  UNL1       -0.0131
      2 C          -2.3525   15.1824    3.2319 C.ar    1  UNL1       -0.0147
      3 C          -3.4606   15.4507    2.4296 C.ar    1  UNL1       -0.0535
      4 C          -4.6600   14.8000    2.6401 C.ar    1  UNL1       -0.0611
      5 C          -4.7687   13.8594    3.6522 C.ar    1  UNL1       -0.0617
      6 C          -3.6699   13.5756    4.4433 C.ar    1  UNL1       -0.0611
      7 C          -2.4671   14.2298    4.2366 C.ar    1  UNL1       -0.0535
      8 C          -0.6405   15.2051    1.1700 C.ar    1  UNL1       -0.0147
      9 C          -0.6488   13.8143    1.0971 C.ar    1  UNL1       -0.0535
     10 C           0.4062   15.2034    3.8272 C.ar    1  UNL1       -0.0147
     11 C           0.2831   15.4016    5.2019 C.ar    1  UNL1       -0.0535
     12 C           1.1954   14.8469    6.0786 C.ar    1  UNL1       -0.0611
     13 C           2.2575   14.1023    5.5889 C.ar    1  UNL1       -0.0617
     14 C           2.4001   13.9208    4.2240 C.ar    1  UNL1       -0.0611
     15 C           1.4824   14.4692    3.3437 C.ar    1  UNL1       -0.0535
     16 C          -0.5813   13.1880   -0.1325 C.ar    1  UNL1       -0.0611
     17 C          -0.5252   13.9400   -1.2966 C.ar    1  UNL1       -0.0617
     18 C          -0.5443   15.3225   -1.2294 C.ar    1  UNL1       -0.0611
     19 C          -0.6030   15.9524    0.0019 C.ar    1  UNL1       -0.0535
     20 H          -3.3709   16.1722    1.6295 H       1  UNL1        0.0624
     21 H          -5.5102   15.0223    2.0118 H       1  UNL1        0.0618
     22 H          -5.7047   13.3462    3.8185 H       1  UNL1        0.0618
     23 H          -3.7444   12.8366    5.2282 H       1  UNL1        0.0618
     24 H          -1.6220   13.9838    4.8623 H       1  UNL1        0.0624
     25 H          -0.7126   13.2289    2.0049 H       1  UNL1        0.0624
     26 H          -0.5423   16.0026    5.5679 H       1  UNL1        0.0624
     27 H           1.0842   14.9976    7.1435 H       1  UNL1        0.0618
     28 H           2.9763   13.6718    6.2705 H       1  UNL1        0.0618
     29 H           3.2339   13.3510    3.8397 H       1  UNL1        0.0618
     30 H           1.6077   14.3224    2.2795 H       1  UNL1        0.0624
     31 H          -0.5796   12.1088   -0.1865 H       1  UNL1        0.0618
     32 H          -0.4755   13.4448   -2.2553 H       1  UNL1        0.0618
     33 H          -0.5163   15.9098   -2.1359 H       1  UNL1        0.0618
     34 H          -0.6262   17.0344    0.0783 H       1  UNL1        0.0624
@<TRIPOS>BOND
     1    32    17    1
     2    33    18    1
     3    17    18   ar
     4    17    16   ar
     5    18    19   ar
     6    31    16    1
     7    16     9   ar
     8    19    34    1
     9    19     8   ar
    10     9     8   ar
    11     9    25    1
    12     8     1    1
    13    20     3    1
    14    21     4    1
    15    30    15    1
    16     3     4   ar
    17     3     2   ar
    18     4     5   ar
    19     1     2    1
    20     1    10    1
    21     2     7   ar
    22    15    10   ar
    23    15    14   ar
    24     5    22    1
    25     5     6   ar
    26    10    11   ar
    27    29    14    1
    28    14    13   ar
    29     7     6   ar
    30     7    24    1
    31     6    23    1
    32    11    26    1
    33    11    12   ar
    34    13    12   ar
    35    13    28    1
    36    12    27    1
