@<TRIPOS>MOLECULE
2
 39 39 0 0 0
SMALL
GASTEIGER

@<TRIPOS>ATOM
      1 CL         11.6558   15.4469    3.3478 Cl      1  UNL1        0.0000
      2 P           9.8918   16.3664    3.6131 P.3     1  UNL1        0.0000
      3 SI          9.8779   18.9160    3.4082 Si      1  UNL1        0.0000
      4 N           9.8111   17.4974    2.3687 N.3     1  UNL1        0.0000
      5 N          10.2421   17.6796    4.6068 N.3     1  UNL1        0.0000
      6 C          11.2459   20.1813    3.0417 C.3     1  UNL1        0.0000
      7 H          11.3299   20.8906    3.8578 H       1  UNL1        0.0000
      8 H          11.0028   20.7497    2.1506 H       1  UNL1        0.0000
      9 H          12.2162   19.7175    2.8941 H       1  UNL1        0.0000
     10 C           8.1690   19.7127    3.6713 C.3     1  UNL1        0.0000
     11 H           8.1802   20.3985    4.5117 H       1  UNL1        0.0000
     12 H           7.4081   18.9608    3.8664 H       1  UNL1        0.0000
     13 H           7.8605   20.2777    2.7981 H       1  UNL1        0.0000
     14 C           9.7143   17.3435    0.9279 C.3     1  UNL1        0.0000
     15 C           9.3647   15.9022    0.5658 C.3     1  UNL1        0.0000
     16 H           9.3747   15.7777   -0.5147 H       1  UNL1        0.0000
     17 H           8.3741   15.6401    0.9326 H       1  UNL1        0.0000
     18 H          10.0967   15.2198    0.9947 H       1  UNL1        0.0000
     19 C           8.6397   18.2904    0.3896 C.3     1  UNL1        0.0000
     20 H           8.5326   18.1640   -0.6846 H       1  UNL1        0.0000
     21 H           8.9143   19.3222    0.5953 H       1  UNL1        0.0000
     22 H           7.6838   18.0842    0.8628 H       1  UNL1        0.0000
     23 C          11.0722   17.6983    0.3062 C.3     1  UNL1        0.0000
     24 H          11.0356   17.5842   -0.7741 H       1  UNL1        0.0000
     25 H          11.8432   17.0423    0.7027 H       1  UNL1        0.0000
     26 H          11.3349   18.7256    0.5426 H       1  UNL1        0.0000
     27 C          10.6881   17.7549    5.9868 C.3     1  UNL1        0.0000
     28 C          10.5446   16.3975    6.6706 C.3     1  UNL1        0.0000
     29 H           9.4977   16.1082    6.7412 H       1  UNL1        0.0000
     30 H          10.9569   16.4426    7.6761 H       1  UNL1        0.0000
     31 H          11.0887   15.6372    6.1125 H       1  UNL1        0.0000
     32 C           9.8571   18.8025    6.7307 C.3     1  UNL1        0.0000
     33 H           8.8013   18.5512    6.6814 H       1  UNL1        0.0000
     34 H          10.0030   19.7821    6.2821 H       1  UNL1        0.0000
     35 H          10.1574   18.8470    7.7743 H       1  UNL1        0.0000
     36 C          12.1669   18.1661    6.0005 C.3     1  UNL1        0.0000
     37 H          12.5352   18.2214    7.0217 H       1  UNL1        0.0000
     38 H          12.2895   19.1373    5.5296 H       1  UNL1        0.0000
     39 H          12.7586   17.4369    5.4528 H       1  UNL1        0.0000
@<TRIPOS>BOND
     1    24    23    1
     2    20    19    1
     3    16    15    1
     4    23    26    1
     5    23    25    1
     6    23    14    1
     7    19    21    1
     8    19    22    1
     9    19    14    1
    10    15    14    1
    11    15    17    1
    12    15    18    1
    13    14     4    1
    14     8     6    1
    15     4     3    1
    16     4     2    1
    17    13    10    1
    18     9     6    1
    19     6     3    1
    20     6     7    1
    21     1     2    1
    22     3    10    1
    23     3     5    1
    24     2     5    1
    25    10    12    1
    26    10    11    1
    27     5    27    1
    28    39    36    1
    29    38    36    1
    30    27    36    1
    31    27    28    1
    32    27    32    1
    33    36    37    1
    34    31    28    1
    35    34    32    1
    36    28    29    1
    37    28    30    1
    38    33    32    1
    39    32    35    1
