@<TRIPOS>MOLECULE
2
 29 28 0 0 0
SMALL
GASTEIGER

@<TRIPOS>ATOM
      1 SI          5.0819    4.4262   10.5842 Si      1  UNL1        0.0000
      2 P           4.2747    4.1182    6.4927 P.3     1  UNL1        0.0000
      3 C           5.0662    4.8915    7.7647 C.3     1  UNL1        0.0000
      4 O           5.1295    4.2470    8.9543 O.3     1  UNL1        0.0000
      5 C           5.7773    6.2194    7.5869 C.3     1  UNL1        0.0000
      6 C           5.2015    7.2705    8.5397 C.3     1  UNL1        0.0000
      7 C           7.2712    6.0116    7.8588 C.3     1  UNL1        0.0000
      8 C           5.5971    6.7163    6.1526 C.3     1  UNL1        0.0000
      9 C           4.9169    2.6412   11.2155 C.3     1  UNL1        0.0000
     10 C           3.5893    5.4924   11.1242 C.3     1  UNL1        0.0000
     11 C           6.6866    5.1301   11.3527 C.3     1  UNL1        0.0000
     12 H           5.3745    6.9991    9.5748 H       1  UNL1        0.0000
     13 H           4.1301    7.3710    8.3811 H       1  UNL1        0.0000
     14 H           5.6718    8.2339    8.3535 H       1  UNL1        0.0000
     15 H           7.8015    6.9588    7.7851 H       1  UNL1        0.0000
     16 H           7.6868    5.3208    7.1283 H       1  UNL1        0.0000
     17 H           7.4286    5.5983    8.8492 H       1  UNL1        0.0000
     18 H           5.9953    5.9928    5.4446 H       1  UNL1        0.0000
     19 H           6.1206    7.6608    6.0195 H       1  UNL1        0.0000
     20 H           4.5423    6.8652    5.9315 H       1  UNL1        0.0000
     21 H           4.8574    2.6323   12.2991 H       1  UNL1        0.0000
     22 H           5.7706    2.0354   10.9302 H       1  UNL1        0.0000
     23 H           4.0280    2.1520   10.8318 H       1  UNL1        0.0000
     24 H           3.0614    5.0203   11.9465 H       1  UNL1        0.0000
     25 H           2.8791    5.6122   10.3115 H       1  UNL1        0.0000
     26 H           3.8801    6.4846   11.4575 H       1  UNL1        0.0000
     27 H           6.6338    5.0422   12.4336 H       1  UNL1        0.0000
     28 H           6.8646    6.1776   11.1273 H       1  UNL1        0.0000
     29 H           7.5595    4.5690   11.0301 H       1  UNL1        0.0000
@<TRIPOS>BOND
     1    18     8    1
     2    20     8    1
     3    19     8    1
     4     8     5    1
     5     2     3    1
     6    16     7    1
     7     5     3    1
     8     5     7    1
     9     5     6    1
    10     3     4    1
    11    15     7    1
    12     7    17    1
    13    14     6    1
    14    13     6    1
    15     6    12    1
    16     4     1    1
    17    25    10    1
    18     1    10    1
    19     1     9    1
    20     1    11    1
    21    23     9    1
    22    22     9    1
    23    29    11    1
    24    10    26    1
    25    10    24    1
    26    28    11    1
    27     9    21    1
    28    11    27    1
