@<TRIPOS>MOLECULE
1
 13 12 0 0 0
SMALL
GASTEIGER

@<TRIPOS>ATOM
      1 P           7.2633    9.0958   11.1758 P.3     1  UNL1       -0.1154
      2 C           5.7380    9.9155   11.7803 C.3     1  UNL1       -0.0447
      3 H           4.9776    9.8061   11.0103 H       1  UNL1        0.0277
      4 H           5.4010    9.4574   12.7113 H       1  UNL1        0.0277
      5 H           5.9170   10.9771   11.9368 H       1  UNL1        0.0277
      6 C           8.3141    9.1737   12.6986 C.3     1  UNL1       -0.0447
      7 H           9.1214    8.4444   12.6218 H       1  UNL1        0.0277
      8 H           8.7504   10.1645   12.8196 H       1  UNL1        0.0277
      9 H           7.7077    8.9410   13.5748 H       1  UNL1        0.0277
     10 C           6.7300    7.3483   11.3012 C.3     1  UNL1       -0.0447
     11 H           5.8621    7.2017   10.6603 H       1  UNL1        0.0277
     12 H           7.5296    6.6905   10.9656 H       1  UNL1        0.0277
     13 H           6.4739    7.1085   12.3345 H       1  UNL1        0.0277
@<TRIPOS>BOND
     1    11    10    1
     2    12    10    1
     3     3     2    1
     4     1    10    1
     5     1     2    1
     6     1     6    1
     7    10    13    1
     8     2     5    1
     9     2     4    1
    10     7     6    1
    11     6     8    1
    12     6     9    1
