@<TRIPOS>MOLECULE
1
 13 12 0 0 0
SMALL
GASTEIGER

@<TRIPOS>ATOM
      1 P           9.2613    9.2504    7.0639 P.3     1  UNL1       -0.1154
      2 C           8.8433    7.6097    6.3673 C.3     1  UNL1       -0.0447
      3 H           7.7960    7.6197    6.0652 H       1  UNL1        0.0277
      4 H           9.4760    7.3906    5.5056 H       1  UNL1        0.0277
      5 H           8.9841    6.8459    7.1294 H       1  UNL1        0.0277
      6 C           9.1359   10.2564    5.5257 C.3     1  UNL1       -0.0447
      7 H           8.1154   10.2075    5.1522 H       1  UNL1        0.0277
      8 H           9.3770   11.2936    5.7534 H       1  UNL1        0.0277
      9 H           9.8193    9.8815    4.7630 H       1  UNL1        0.0277
     10 C          11.0972    9.1176    7.1431 C.3     1  UNL1       -0.0447
     11 H          11.4001    8.4081    7.9120 H       1  UNL1        0.0277
     12 H          11.4796    8.7786    6.1792 H       1  UNL1        0.0277
     13 H          11.5248   10.0939    7.3743 H       1  UNL1        0.0277
@<TRIPOS>BOND
     1     9     6    1
     2     7     6    1
     3     4     2    1
     4     6     8    1
     5     6     1    1
     6     3     2    1
     7    12    10    1
     8     2     1    1
     9     2     5    1
    10     1    10    1
    11    10    13    1
    12    10    11    1
