@<TRIPOS>MOLECULE
1
 34 36 0 0 0
SMALL
GASTEIGER

@<TRIPOS>ATOM
      1 P           2.5553    8.8496    3.3268 P.3     1  UNL1       -0.0131
      2 C           0.8601    8.1784    3.3078 C.ar    1  UNL1       -0.0147
      3 C           0.2010    8.0861    2.0832 C.ar    1  UNL1       -0.0535
      4 H           0.7463    8.2941    1.1720 H       1  UNL1        0.0624
      5 C          -1.1354    7.7409    2.0379 C.ar    1  UNL1       -0.0611
      6 H          -1.6399    7.6611    1.0862 H       1  UNL1        0.0618
      7 C          -1.8326    7.5102    3.2136 C.ar    1  UNL1       -0.0617
      8 H          -2.8809    7.2536    3.1775 H       1  UNL1        0.0618
      9 C          -1.1863    7.6175    4.4324 C.ar    1  UNL1       -0.0611
     10 H          -1.7304    7.4445    5.3494 H       1  UNL1        0.0618
     11 C           0.1563    7.9498    4.4833 C.ar    1  UNL1       -0.0535
     12 H           0.6590    8.0364    5.4359 H       1  UNL1        0.0624
     13 C           3.2180    8.2436    4.9154 C.ar    1  UNL1       -0.0147
     14 C           3.8062    6.9881    5.0258 C.ar    1  UNL1       -0.0535
     15 H           3.9056    6.3560    4.1547 H       1  UNL1        0.0624
     16 C           4.2724    6.5503    6.2529 C.ar    1  UNL1       -0.0611
     17 H           4.7333    5.5765    6.3329 H       1  UNL1        0.0618
     18 C           4.1551    7.3553    7.3740 C.ar    1  UNL1       -0.0617
     19 H           4.5254    7.0102    8.3281 H       1  UNL1        0.0618
     20 C           3.5700    8.6069    7.2676 C.ar    1  UNL1       -0.0611
     21 H           3.4816    9.2407    8.1383 H       1  UNL1        0.0618
     22 C           3.1064    9.0499    6.0430 C.ar    1  UNL1       -0.0535
     23 H           2.6587   10.0309    5.9392 H       1  UNL1        0.0624
     24 C           3.4679    7.8406    2.1193 C.ar    1  UNL1       -0.0147
     25 C           2.9822    6.6184    1.6606 C.ar    1  UNL1       -0.0535
     26 H           2.0253    6.2494    2.0038 H       1  UNL1        0.0624
     27 C           3.7285    5.8732    0.7659 C.ar    1  UNL1       -0.0611
     28 H           3.3466    4.9269    0.4099 H       1  UNL1        0.0618
     29 C           4.9582    6.3357    0.3254 C.ar    1  UNL1       -0.0617
     30 H           5.5314    5.7524   -0.3806 H       1  UNL1        0.0618
     31 C           5.4504    7.5426    0.7923 C.ar    1  UNL1       -0.0611
     32 H           6.4100    7.9048    0.4541 H       1  UNL1        0.0618
     33 C           4.7121    8.2924    1.6894 C.ar    1  UNL1       -0.0535
     34 H           5.0980    9.2340    2.0518 H       1  UNL1        0.0624
@<TRIPOS>BOND
     1    30    29    1
     2    29    27   ar
     3    29    31   ar
     4    28    27    1
     5    32    31    1
     6    27    25   ar
     7    31    33   ar
     8     6     5    1
     9     4     3    1
    10    25    26    1
    11    25    24   ar
    12    33    34    1
    13    33    24   ar
    14     5     3   ar
    15     5     7   ar
    16     3     2   ar
    17    24     1    1
    18     8     7    1
    19     7     9   ar
    20     2     1    1
    21     2    11   ar
    22     1    13    1
    23    15    14    1
    24     9    11   ar
    25     9    10    1
    26    11    12    1
    27    13    14   ar
    28    13    22   ar
    29    14    16   ar
    30    23    22    1
    31    22    20   ar
    32    16    17    1
    33    16    18   ar
    34    20    18   ar
    35    20    21    1
    36    18    19    1
