@<TRIPOS>MOLECULE
1
 34 36 0 0 0
SMALL
GASTEIGER

@<TRIPOS>ATOM
      1 P           2.5375   13.5219    2.7371 P.3     1  UNL1       -0.0131
      2 C           0.8450   14.0842    2.3790 C.ar    1  UNL1       -0.0147
      3 C           0.0008   14.4586    3.4196 C.ar    1  UNL1       -0.0535
      4 H           0.3973   14.5530    4.4213 H       1  UNL1        0.0624
      5 C          -1.3396   14.6928    3.1728 C.ar    1  UNL1       -0.0611
      6 H          -1.9945   14.9779    3.9834 H       1  UNL1        0.0618
      7 C          -1.8464   14.5549    1.8915 C.ar    1  UNL1       -0.0617
      8 H          -2.8945   14.7347    1.7033 H       1  UNL1        0.0618
      9 C          -1.0111   14.1742    0.8536 C.ar    1  UNL1       -0.0611
     10 H          -1.4081   14.0590   -0.1445 H       1  UNL1        0.0618
     11 C           0.3271   13.9269    1.0953 C.ar    1  UNL1       -0.0535
     12 H           0.9777   13.5947    0.2975 H       1  UNL1        0.0624
     13 C           3.0537   14.6066    4.1114 C.ar    1  UNL1       -0.0147
     14 C           3.7280   14.0827    5.2061 C.ar    1  UNL1       -0.0535
     15 H           3.9192   13.0200    5.2545 H       1  UNL1        0.0624
     16 C           4.1627   14.9227    6.2180 C.ar    1  UNL1       -0.0611
     17 H           4.6894   14.5118    7.0666 H       1  UNL1        0.0618
     18 C           3.9254   16.2840    6.1404 C.ar    1  UNL1       -0.0617
     19 H           4.2649   16.9394    6.9292 H       1  UNL1        0.0618
     20 C           3.2559   16.8103    5.0455 C.ar    1  UNL1       -0.0611
     21 H           3.0749   17.8736    4.9828 H       1  UNL1        0.0618
     22 C           2.8252   15.9781    4.0306 C.ar    1  UNL1       -0.0535
     23 H           2.3065   16.3870    3.1745 H       1  UNL1        0.0624
     24 C           3.5919   14.2023    1.4206 C.ar    1  UNL1       -0.0147
     25 C           4.8663   13.6580    1.2897 C.ar    1  UNL1       -0.0535
     26 H           5.1650   12.8354    1.9253 H       1  UNL1        0.0624
     27 C           5.7373   14.1580    0.3402 C.ar    1  UNL1       -0.0611
     28 H           6.7210   13.7253    0.2329 H       1  UNL1        0.0618
     29 C           5.3460   15.2077   -0.4746 C.ar    1  UNL1       -0.0617
     30 H           6.0239   15.5956   -1.2211 H       1  UNL1        0.0618
     31 C           4.0843   15.7617   -0.3338 C.ar    1  UNL1       -0.0611
     32 H           3.7806   16.5836   -0.9665 H       1  UNL1        0.0618
     33 C           3.2050   15.2657    0.6120 C.ar    1  UNL1       -0.0535
     34 H           2.2197   15.7000    0.7118 H       1  UNL1        0.0624
@<TRIPOS>BOND
     1    30    29    1
     2    32    31    1
     3    29    31   ar
     4    29    27   ar
     5    31    33   ar
     6    10     9    1
     7    28    27    1
     8    12    11    1
     9    27    25   ar
    10    33    34    1
    11    33    24   ar
    12     9    11   ar
    13     9     7   ar
    14    11     2   ar
    15    25    24   ar
    16    25    26    1
    17    24     1    1
    18     8     7    1
    19     7     5   ar
    20     2     1    1
    21     2     3   ar
    22     1    13    1
    23     5     3   ar
    24     5     6    1
    25    23    22    1
    26     3     4    1
    27    22    13   ar
    28    22    20   ar
    29    13    14   ar
    30    21    20    1
    31    20    18   ar
    32    14    15    1
    33    14    16   ar
    34    18    16   ar
    35    18    19    1
    36    16    17    1
