@<TRIPOS>MOLECULE
1
 58 57 0 0 0
SMALL
GASTEIGER

@<TRIPOS>ATOM
      1 P           6.5357    4.4975    5.0908 P.3     1  UNL1        0.0000
      2 C           7.0598    6.1301    5.7299 C.3     1  UNL1        0.0000
      3 H           6.9534    6.0298    6.8170 H       1  UNL1        0.0000
      4 P           6.5483    4.5794    3.0657 P.3     1  UNL1        0.0000
      5 C           6.0266    2.8337    2.7245 C.3     1  UNL1        0.0000
      6 H           5.7005    2.4072    3.6828 H       1  UNL1        0.0000
      7 SI          5.8178    7.5079    5.2106 Si      1  UNL1        0.0000
      8 C           6.2839    8.2471    3.5186 C.3     1  UNL1        0.0000
      9 H           7.1946    8.8336    3.5798 H       1  UNL1        0.0000
     10 H           5.4965    8.9026    3.1608 H       1  UNL1        0.0000
     11 H           6.4331    7.4698    2.7754 H       1  UNL1        0.0000
     12 C           4.0666    6.7574    5.1177 C.3     1  UNL1        0.0000
     13 H           4.0449    5.9143    4.4303 H       1  UNL1        0.0000
     14 H           3.3361    7.4821    4.7713 H       1  UNL1        0.0000
     15 H           3.7340    6.3990    6.0888 H       1  UNL1        0.0000
     16 C           5.8308    8.8512    6.5630 C.3     1  UNL1        0.0000
     17 H           6.8065    9.3123    6.6654 H       1  UNL1        0.0000
     18 H           5.5550    8.4433    7.5304 H       1  UNL1        0.0000
     19 H           5.1202    9.6356    6.3251 H       1  UNL1        0.0000
     20 SI          8.9494    6.3723    5.4504 Si      1  UNL1        0.0000
     21 C           9.4769    6.3983    3.6206 C.3     1  UNL1        0.0000
     22 H           9.0812    7.2615    3.0975 H       1  UNL1        0.0000
     23 H           9.1360    5.5112    3.0941 H       1  UNL1        0.0000
     24 H          10.5594    6.4343    3.5428 H       1  UNL1        0.0000
     25 C           9.7887    4.8971    6.3239 C.3     1  UNL1        0.0000
     26 H           9.6647    4.9492    7.4021 H       1  UNL1        0.0000
     27 H          10.8545    4.8564    6.1211 H       1  UNL1        0.0000
     28 H           9.3543    3.9562    5.9910 H       1  UNL1        0.0000
     29 C           9.4895    8.0036    6.2744 C.3     1  UNL1        0.0000
     30 H           9.1100    8.8664    5.7379 H       1  UNL1        0.0000
     31 H          10.5715    8.0772    6.2876 H       1  UNL1        0.0000
     32 H           9.1444    8.0712    7.3006 H       1  UNL1        0.0000
     33 SI          7.6092    1.8644    2.2034 Si      1  UNL1        0.0000
     34 C           8.8562    1.9897    3.6465 C.3     1  UNL1        0.0000
     35 H           8.3590    1.8838    4.6097 H       1  UNL1        0.0000
     36 H           9.3616    2.9519    3.6440 H       1  UNL1        0.0000
     37 H           9.6176    1.2184    3.5865 H       1  UNL1        0.0000
     38 C           7.1811    0.0390    1.8756 C.3     1  UNL1        0.0000
     39 H           6.5059   -0.0692    1.0334 H       1  UNL1        0.0000
     40 H           6.7133   -0.4201    2.7402 H       1  UNL1        0.0000
     41 H           8.0797   -0.5261    1.6506 H       1  UNL1        0.0000
     42 C           8.4135    2.6747    0.6755 C.3     1  UNL1        0.0000
     43 H           7.9441    2.3531   -0.2469 H       1  UNL1        0.0000
     44 H           9.4656    2.4149    0.6133 H       1  UNL1        0.0000
     45 H           8.3422    3.7575    0.7236 H       1  UNL1        0.0000
     46 SI          4.4841    2.7577    1.5743 Si      1  UNL1        0.0000
     47 C           4.9785    2.7848   -0.2645 C.3     1  UNL1        0.0000
     48 H           5.6152    3.6326   -0.4930 H       1  UNL1        0.0000
     49 H           4.0955    2.8571   -0.8911 H       1  UNL1        0.0000
     50 H           5.5086    1.8827   -0.5496 H       1  UNL1        0.0000
     51 C           3.5364    1.1612    2.0050 C.3     1  UNL1        0.0000
     52 H           3.2097    1.1679    3.0410 H       1  UNL1        0.0000
     53 H           4.1475    0.2767    1.8611 H       1  UNL1        0.0000
     54 H           2.6517    1.0549    1.3854 H       1  UNL1        0.0000
     55 C           3.3704    4.2668    1.9236 C.3     1  UNL1        0.0000
     56 H           3.9132    5.1983    1.7839 H       1  UNL1        0.0000
     57 H           2.9968    4.2505    2.9433 H       1  UNL1        0.0000
     58 H           2.5084    4.2843    1.2638 H       1  UNL1        0.0000
@<TRIPOS>BOND
     1    49    47    1
     2    50    47    1
     3    48    47    1
     4    47    46    1
     5    43    42    1
     6    44    42    1
     7    42    45    1
     8    42    33    1
     9    39    38    1
    10    58    55    1
    11    54    51    1
    12    46    55    1
    13    46    51    1
    14    46     5    1
    15    41    38    1
    16    56    55    1
    17    53    51    1
    18    38    33    1
    19    38    40    1
    20    55    57    1
    21    51    52    1
    22    33     5    1
    23    33    34    1
    24     5     4    1
    25     5     6    1
    26    11     8    1
    27     4     1    1
    28    23    21    1
    29    22    21    1
    30    10     8    1
    31     8     9    1
    32     8     7    1
    33    24    21    1
    34    37    34    1
    35    21    20    1
    36    36    34    1
    37    34    35    1
    38    13    12    1
    39    14    12    1
    40     1     2    1
    41    12     7    1
    42    12    15    1
    43     7     2    1
    44     7    16    1
    45    20     2    1
    46    20    29    1
    47    20    25    1
    48     2     3    1
    49    30    29    1
    50    28    25    1
    51    27    25    1
    52    29    31    1
    53    29    32    1
    54    25    26    1
    55    19    16    1
    56    16    17    1
    57    16    18    1
