@<TRIPOS>MOLECULE
1
 13 12 0 0 0
SMALL
GASTEIGER

@<TRIPOS>ATOM
      1 P           2.5750    8.2806    2.7213 P.3     1  UNL1       -0.1154
      2 C           0.9278    8.6868    3.4426 C.3     1  UNL1       -0.0447
      3 H           0.6620    9.7103    3.1835 H       1  UNL1        0.0277
      4 H           0.9871    8.6041    4.5266 H       1  UNL1        0.0277
      5 H           0.1623    8.0066    3.0697 H       1  UNL1        0.0277
      6 C           2.6928    6.5069    3.1744 C.3     1  UNL1       -0.0447
      7 H           2.8824    6.4308    4.2433 H       1  UNL1        0.0277
      8 H           3.5378    6.0699    2.6452 H       1  UNL1        0.0277
      9 H           1.7793    5.9695    2.9207 H       1  UNL1        0.0277
     10 C           2.1322    8.1380    0.9453 C.3     1  UNL1       -0.0447
     11 H           1.2834    7.4699    0.8007 H       1  UNL1        0.0277
     12 H           2.9973    7.7572    0.4053 H       1  UNL1        0.0277
     13 H           1.8943    9.1257    0.5563 H       1  UNL1        0.0277
@<TRIPOS>BOND
     1    12    10    1
     2    13    10    1
     3    11    10    1
     4    10     1    1
     5     8     6    1
     6     1     6    1
     7     1     2    1
     8     9     6    1
     9     5     2    1
    10     6     7    1
    11     3     2    1
    12     2     4    1
