@<TRIPOS>MOLECULE
1
 52 54 0 0 0
SMALL
GASTEIGER

@<TRIPOS>ATOM
      1 P           9.0074    5.3591    6.9992 P.3     1  UNL1       -0.0964
      2 C           9.8475    6.2851    8.4111 C.3     1  UNL1       -0.0200
      3 H           9.1685    7.1345    8.5727 H       1  UNL1        0.0349
      4 C          11.1792    6.8737    7.9436 C.3     1  UNL1       -0.0463
      5 H          11.9225    6.0821    7.8242 H       1  UNL1        0.0271
      6 H          11.0420    7.3575    6.9733 H       1  UNL1        0.0271
      7 C          11.6944    7.8838    8.9652 C.3     1  UNL1       -0.0525
      8 H          12.6453    8.3012    8.6274 H       1  UNL1        0.0265
      9 H          10.9804    8.7061    9.0497 H       1  UNL1        0.0265
     10 C          11.8725    7.2198   10.3275 C.3     1  UNL1       -0.0530
     11 H          12.2050    7.9556   11.0629 H       1  UNL1        0.0265
     12 H          12.6435    6.4487   10.2553 H       1  UNL1        0.0265
     13 C          10.5643    6.5823   10.7848 C.3     1  UNL1       -0.0525
     14 H           9.8122    7.3621   10.9279 H       1  UNL1        0.0265
     15 H          10.7109    6.0799   11.7441 H       1  UNL1        0.0265
     16 C          10.0614    5.5767    9.7480 C.3     1  UNL1       -0.0463
     17 H           9.1354    5.1259   10.1088 H       1  UNL1        0.0271
     18 H          10.8103    4.7912    9.6355 H       1  UNL1        0.0271
     19 C          10.1251    3.8408    6.8599 C.3     1  UNL1       -0.0200
     20 H          11.1275    4.2461    7.0552 H       1  UNL1        0.0349
     21 C          10.1314    3.3151    5.4246 C.3     1  UNL1       -0.0463
     22 H           9.1561    2.8921    5.1762 H       1  UNL1        0.0271
     23 H          10.3084    4.1494    4.7448 H       1  UNL1        0.0271
     24 C          11.2146    2.2555    5.2417 C.3     1  UNL1       -0.0525
     25 H          11.1940    1.8778    4.2172 H       1  UNL1        0.0265
     26 H          12.1945    2.7093    5.4083 H       1  UNL1        0.0265
     27 C          11.0176    1.1055    6.2242 C.3     1  UNL1       -0.0530
     28 H          11.8187    0.3719    6.1097 H       1  UNL1        0.0265
     29 H          10.0711    0.6034    6.0097 H       1  UNL1        0.0265
     30 C          10.9947    1.6346    7.6541 C.3     1  UNL1       -0.0525
     31 H          11.9613    2.0872    7.8885 H       1  UNL1        0.0265
     32 H          10.8336    0.8112    8.3542 H       1  UNL1        0.0265
     33 C           9.8875    2.6756    7.8223 C.3     1  UNL1       -0.0463
     34 H           8.9313    2.1978    7.6057 H       1  UNL1        0.0271
     35 H           9.8697    3.0132    8.8581 H       1  UNL1        0.0271
     36 C           7.4937    4.6680    7.8728 C.3     1  UNL1       -0.0200
     37 H           7.8031    4.0335    8.7090 H       1  UNL1        0.0349
     38 C           6.6857    3.8400    6.8764 C.3     1  UNL1       -0.0463
     39 H           6.4609    4.4674    6.0107 H       1  UNL1        0.0271
     40 H           7.2756    2.9957    6.5165 H       1  UNL1        0.0271
     41 C           5.3898    3.3248    7.4960 C.3     1  UNL1       -0.0525
     42 H           4.8316    2.7493    6.7536 H       1  UNL1        0.0265
     43 H           5.6221    2.6552    8.3286 H       1  UNL1        0.0265
     44 C           4.5420    4.4843    8.0067 C.3     1  UNL1       -0.0530
     45 H           4.2558    5.1231    7.1687 H       1  UNL1        0.0265
     46 H           3.6271    4.1062    8.4689 H       1  UNL1        0.0265
     47 C           5.3366    5.3052    9.0150 C.3     1  UNL1       -0.0525
     48 H           5.5707    4.6822    9.8824 H       1  UNL1        0.0265
     49 H           4.7381    6.1498    9.3637 H       1  UNL1        0.0265
     50 C           6.6345    5.8171    8.3950 C.3     1  UNL1       -0.0463
     51 H           7.1806    6.3912    9.1453 H       1  UNL1        0.0271
     52 H           6.4097    6.4843    7.5578 H       1  UNL1        0.0271
@<TRIPOS>BOND
     1    25    24    1
     2    23    21    1
     3    22    21    1
     4    24    26    1
     5    24    21    1
     6    24    27    1
     7    21    19    1
     8    29    27    1
     9    39    38    1
    10    28    27    1
    11    27    30    1
    12    40    38    1
    13    42    41    1
    14    19     1    1
    15    19    20    1
    16    19    33    1
    17    38    41    1
    18    38    36    1
    19     6     4    1
    20     1    36    1
    21     1     2    1
    22    45    44    1
    23    41    44    1
    24    41    43    1
    25    52    50    1
    26    34    33    1
    27    30    33    1
    28    30    31    1
    29    30    32    1
    30    33    35    1
    31     5     4    1
    32    36    50    1
    33    36    37    1
    34     4     2    1
    35     4     7    1
    36    44    46    1
    37    44    47    1
    38    50    47    1
    39    50    51    1
    40     2     3    1
    41     2    16    1
    42     8     7    1
    43     7     9    1
    44     7    10    1
    45    47    49    1
    46    47    48    1
    47    18    16    1
    48    16    17    1
    49    16    13    1
    50    12    10    1
    51    10    13    1
    52    10    11    1
    53    13    14    1
    54    13    15    1
