@<TRIPOS>MOLECULE
1
 13 12 0 0 0
SMALL
GASTEIGER

@<TRIPOS>ATOM
      1 P          -0.2061    0.9341    3.3134 P.3     1  UNL1       -0.1154
      2 C          -2.0167    0.8352    3.6385 C.3     1  UNL1       -0.0447
      3 C          -0.0410   -0.6345    2.3639 C.3     1  UNL1       -0.0447
      4 C           0.4289    0.3387    4.9461 C.3     1  UNL1       -0.0447
      5 H          -2.3218    1.5837    4.3670 H       1  UNL1        0.0277
      6 H          -2.2729   -0.1570    4.0118 H       1  UNL1        0.0277
      7 H          -2.5407    1.0197    2.7023 H       1  UNL1        0.0277
      8 H          -0.5629   -1.4402    2.8815 H       1  UNL1        0.0277
      9 H           1.0098   -0.8994    2.2581 H       1  UNL1        0.0277
     10 H          -0.4785   -0.4876    1.3773 H       1  UNL1        0.0277
     11 H           0.2846    1.1046    5.7054 H       1  UNL1        0.0277
     12 H          -0.0883   -0.5703    5.2508 H       1  UNL1        0.0277
     13 H           1.4946    0.1321    4.8665 H       1  UNL1        0.0277
@<TRIPOS>BOND
     1    10     3    1
     2     9     3    1
     3     3     8    1
     4     3     1    1
     5     7     2    1
     6     1     2    1
     7     1     4    1
     8     2     6    1
     9     2     5    1
    10    13     4    1
    11     4    12    1
    12     4    11    1
