@<TRIPOS>MOLECULE
1
 32 33 0 0 0
SMALL
GASTEIGER

@<TRIPOS>ATOM
      1 P           1.1773    3.9224    3.5322 P.3     1  UNL1        0.0000
      2 SI          1.2735    6.0023    4.3811 Si      1  UNL1        0.0000
      3 C          -0.3721    3.4524    4.3662 C.ar    1  UNL1        0.0000
      4 C          -1.6327    3.6557    3.8161 C.ar    1  UNL1        0.0000
      5 H          -1.7120    4.1167    2.8416 H       1  UNL1        0.0000
      6 C          -2.7708    3.2774    4.5041 C.ar    1  UNL1        0.0000
      7 H          -3.7439    3.4465    4.0646 H       1  UNL1        0.0000
      8 C          -2.6677    2.6851    5.7521 C.ar    1  UNL1        0.0000
      9 H          -3.5579    2.3892    6.2879 H       1  UNL1        0.0000
     10 C          -1.4162    2.4706    6.3069 C.ar    1  UNL1        0.0000
     11 H          -1.3285    2.0048    7.2783 H       1  UNL1        0.0000
     12 C          -0.2793    2.8470    5.6179 C.ar    1  UNL1        0.0000
     13 H           0.6994    2.6790    6.0459 H       1  UNL1        0.0000
     14 C           0.9137    5.9378    6.2584 C.3     1  UNL1        0.0000
     15 H           1.6315    5.2999    6.7636 H       1  UNL1        0.0000
     16 H          -0.0762    5.5431    6.4604 H       1  UNL1        0.0000
     17 H           0.9773    6.9272    6.6995 H       1  UNL1        0.0000
     18 C           3.0596    6.6296    4.1475 C.3     1  UNL1        0.0000
     19 H           3.1669    7.6418    4.5222 H       1  UNL1        0.0000
     20 H           3.3518    6.6253    3.1041 H       1  UNL1        0.0000
     21 H           3.7583    5.9979    4.6860 H       1  UNL1        0.0000
     22 C           0.0095    7.1418    3.5379 C.ar    1  UNL1        0.0000
     23 C          -1.3415    7.0522    3.8637 C.ar    1  UNL1        0.0000
     24 H          -1.6537    6.3752    4.6459 H       1  UNL1        0.0000
     25 C          -2.2885    7.8090    3.1993 C.ar    1  UNL1        0.0000
     26 H          -3.3328    7.7199    3.4641 H       1  UNL1        0.0000
     27 C          -1.9005    8.6753    2.1915 C.ar    1  UNL1        0.0000
     28 H          -2.6395    9.2628    1.6658 H       1  UNL1        0.0000
     29 C          -0.5610    8.7822    1.8587 C.ar    1  UNL1        0.0000
     30 H          -0.2516    9.4563    1.0725 H       1  UNL1        0.0000
     31 C           0.3813    8.0205    2.5249 C.ar    1  UNL1        0.0000
     32 H           1.4231    8.1064    2.2546 H       1  UNL1        0.0000
@<TRIPOS>BOND
     1    30    29    1
     2    28    27    1
     3    29    27   ar
     4    29    31   ar
     5    27    25   ar
     6    32    31    1
     7    31    22   ar
     8     5     4    1
     9    20    18    1
    10    25    26    1
    11    25    23   ar
    12     1     3    1
    13     1     2    1
    14    22    23   ar
    15    22     2    1
    16     4     3   ar
    17     4     6   ar
    18    23    24    1
    19     7     6    1
    20    18     2    1
    21    18    19    1
    22    18    21    1
    23     3    12   ar
    24     2    14    1
    25     6     8   ar
    26    12    13    1
    27    12    10   ar
    28     8     9    1
    29     8    10   ar
    30    14    16    1
    31    14    17    1
    32    14    15    1
    33    10    11    1
