@<TRIPOS>MOLECULE
53
 56 58 0 0 0
SMALL
GASTEIGER

@<TRIPOS>ATOM
      1 C           1.3496   10.3722   12.4826 C.3     1  UNL1        0.0000
      2 H           0.9236   10.2178   11.4855 H       1  UNL1        0.0000
      3 C           1.2953    8.7966   14.1436 C.2     1  UNL1        0.0000
      4 C           0.6064    8.0845   15.2139 C.ar    1  UNL1        0.0000
      5 C          -0.7709    8.2175   15.3835 C.ar    1  UNL1        0.0000
      6 H          -1.3256    8.8609   14.7181 H       1  UNL1        0.0000
      7 C          -1.4094    7.5257   16.3950 C.ar    1  UNL1        0.0000
      8 H          -2.4764    7.6281   16.5252 H       1  UNL1        0.0000
      9 C          -0.6836    6.7031   17.2419 C.ar    1  UNL1        0.0000
     10 H          -1.1865    6.1652   18.0318 H       1  UNL1        0.0000
     11 C           0.6873    6.5724   17.0791 C.ar    1  UNL1        0.0000
     12 H           1.2513    5.9349   17.7432 H       1  UNL1        0.0000
     13 C           1.3338    7.2587   16.0703 C.ar    1  UNL1        0.0000
     14 H           2.4003    7.1767   15.9323 H       1  UNL1        0.0000
     15 C           1.3894   11.8263   12.8373 C.ar    1  UNL1        0.0000
     16 C           1.6732   12.1993   14.1469 C.ar    1  UNL1        0.0000
     17 H           1.7992   11.4358   14.9022 H       1  UNL1        0.0000
     18 C           1.7490   13.5363   14.4932 C.ar    1  UNL1        0.0000
     19 H           1.9711   13.8130   15.5130 H       1  UNL1        0.0000
     20 C           1.5498   14.5128   13.5324 C.ar    1  UNL1        0.0000
     21 H           1.6218   15.5564   13.7985 H       1  UNL1        0.0000
     22 C           1.2526   14.1478   12.2301 C.ar    1  UNL1        0.0000
     23 H           1.0866   14.9068   11.4804 H       1  UNL1        0.0000
     24 C           1.1659   12.8115   11.8834 C.ar    1  UNL1        0.0000
     25 H           0.9238   12.5302   10.8686 H       1  UNL1        0.0000
     26 C           3.2627    8.4705   11.2060 C.3     1  UNL1        0.0000
     27 H           4.3309    8.2256   11.2609 H       1  UNL1        0.0000
     28 C           1.3061    9.3041    8.8470 C.3     1  UNL1        0.0000
     29 H           1.3267    9.4861    7.7773 H       1  UNL1        0.0000
     30 H           0.6203   10.0278    9.2774 H       1  UNL1        0.0000
     31 H           0.8833    8.3176    9.0021 H       1  UNL1        0.0000
     32 C           3.4946   11.3021    9.7587 C.3     1  UNL1        0.0000
     33 H           4.5436   11.4952    9.5565 H       1  UNL1        0.0000
     34 H           3.2882   11.6546   10.7664 H       1  UNL1        0.0000
     35 H           2.9205   11.9148    9.0691 H       1  UNL1        0.0000
     36 C           4.3127    8.7147    8.3008 C.3     1  UNL1        0.0000
     37 H           4.0787    7.6864    8.0504 H       1  UNL1        0.0000
     38 H           5.3286    8.7397    8.6826 H       1  UNL1        0.0000
     39 H           4.2979    9.2873    7.3789 H       1  UNL1        0.0000
     40 C           0.5000    6.8805   11.7028 C.3     1  UNL1        0.0000
     41 H          -0.0261    6.1226   11.1302 H       1  UNL1        0.0000
     42 H           0.0828    7.8437   11.4284 H       1  UNL1        0.0000
     43 H           0.2694    6.7128   12.7506 H       1  UNL1        0.0000
     44 C           2.6449    5.7949    9.7674 C.3     1  UNL1        0.0000
     45 H           3.6980    5.6968    9.5286 H       1  UNL1        0.0000
     46 H           2.1538    6.2561    8.9182 H       1  UNL1        0.0000
     47 H           2.2430    4.7930    9.8728 H       1  UNL1        0.0000
     48 C           3.2400    5.7618   12.7692 C.3     1  UNL1        0.0000
     49 H           2.7003    4.8433   12.9812 H       1  UNL1        0.0000
     50 H           3.3036    6.3326   13.6890 H       1  UNL1        0.0000
     51 H           4.2516    5.4886   12.4817 H       1  UNL1        0.0000
     52 N           2.5392    8.6233   13.8933 N.2     1  UNL1        0.0000
     53 P           3.0866    9.5958   12.6381 P.3     1  UNL1        0.0000
     54 SI          2.3831    6.7625   11.3913 Si      1  UNL1        0.0000
     55 SI          3.0792    9.4507    9.5530 Si      1  UNL1        0.0000
     56 O           0.5594    9.6531   13.4228 O.2     1  UNL1        0.0000
@<TRIPOS>BOND
     1    39    36    1
     2    29    28    1
     3    37    36    1
     4    36    38    1
     5    36    55    1
     6    28    31    1
     7    28    30    1
     8    28    55    1
     9    46    44    1
    10    35    32    1
    11    45    44    1
    12    55    32    1
    13    55    26    1
    14    33    32    1
    15    32    34    1
    16    44    47    1
    17    44    54    1
    18    25    24    1
    19    41    40    1
    20    26    27    1
    21    26    54    1
    22    26    53    1
    23    54    40    1
    24    54    48    1
    25    42    40    1
    26    23    22    1
    27     2     1    1
    28    40    43    1
    29    24    22   ar
    30    24    15   ar
    31    22    20   ar
    32    51    48    1
    33     1    53    1
    34     1    15    1
    35     1    56    1
    36    53    52    1
    37    48    49    1
    38    48    50    1
    39    15    16   ar
    40    56     3    1
    41    20    21    1
    42    20    18   ar
    43    52     3    2
    44     3     4    1
    45    16    18   ar
    46    16    17    1
    47    18    19    1
    48     6     5    1
    49     4     5   ar
    50     4    13   ar
    51     5     7   ar
    52    14    13    1
    53    13    11   ar
    54     7     8    1
    55     7     9   ar
    56    11     9   ar
    57    11    12    1
    58     9    10    1
