@<TRIPOS>MOLECULE
1
 49 50 0 0 0
SMALL
GASTEIGER

@<TRIPOS>ATOM
      1 P           5.8484    2.3982    4.2969 P.3     1  UNL1        0.0000
      2 SI          5.5878    1.8050    1.1712 Si      1  UNL1        0.0000
      3 SI          5.4865   -0.5580    3.5097 Si      1  UNL1        0.0000
      4 N           6.1304    3.8765    3.5334 N.2     1  UNL1        0.0000
      5 C           7.7321    2.0827    4.3686 C.3     1  UNL1        0.0000
      6 C           7.3698    4.1189    3.3794 C.2     1  UNL1        0.0000
      7 C           5.2156    1.2846    2.9925 C.3     1  UNL1        0.0000
      8 C           4.7256    3.4607    0.7814 C.3     1  UNL1        0.0000
      9 C           4.7934    0.5059    0.0214 C.3     1  UNL1        0.0000
     10 C           7.4510    1.8614    0.7547 C.3     1  UNL1        0.0000
     11 C           3.9396   -1.5404    2.9853 C.3     1  UNL1        0.0000
     12 C           7.0166   -1.3205    2.6523 C.3     1  UNL1        0.0000
     13 C           5.7145   -0.7692    5.3913 C.3     1  UNL1        0.0000
     14 C           8.2095    1.9550    5.7806 C.ar    1  UNL1        0.0000
     15 C           8.6740    0.7443    6.2799 C.ar    1  UNL1        0.0000
     16 C           9.0662    0.6423    7.6024 C.ar    1  UNL1        0.0000
     17 C           9.0131    1.7488    8.4334 C.ar    1  UNL1        0.0000
     18 C           8.5746    2.9637    7.9356 C.ar    1  UNL1        0.0000
     19 C           8.1691    3.0652    6.6172 C.ar    1  UNL1        0.0000
     20 C           7.8884    5.3815    2.7884 C.3     1  UNL1        0.0000
     21 O           8.3038    3.2346    3.7511 O.2     1  UNL1        0.0000
     22 H           8.0068    1.2049    3.7725 H       1  UNL1        0.0000
     23 H           4.1339    1.4394    3.0958 H       1  UNL1        0.0000
     24 H           4.9641    4.2238    1.5142 H       1  UNL1        0.0000
     25 H           3.6459    3.3379    0.7806 H       1  UNL1        0.0000
     26 H           5.0119    3.8311   -0.1989 H       1  UNL1        0.0000
     27 H           4.9045    0.8149   -1.0123 H       1  UNL1        0.0000
     28 H           5.2462   -0.4741    0.1181 H       1  UNL1        0.0000
     29 H           3.7313    0.4004    0.2146 H       1  UNL1        0.0000
     30 H           7.5893    2.2391   -0.2541 H       1  UNL1        0.0000
     31 H           7.9012    0.8745    0.7933 H       1  UNL1        0.0000
     32 H           8.0148    2.5049    1.4196 H       1  UNL1        0.0000
     33 H           3.0436   -1.1538    3.4607 H       1  UNL1        0.0000
     34 H           4.0379   -2.5813    3.2758 H       1  UNL1        0.0000
     35 H           3.7817   -1.5139    1.9131 H       1  UNL1        0.0000
     36 H           7.9507   -0.8489    2.9408 H       1  UNL1        0.0000
     37 H           7.0918   -2.3704    2.9179 H       1  UNL1        0.0000
     38 H           6.9411   -1.2664    1.5721 H       1  UNL1        0.0000
     39 H           4.7611   -0.8868    5.8966 H       1  UNL1        0.0000
     40 H           6.2158    0.0855    5.8374 H       1  UNL1        0.0000
     41 H           6.3054   -1.6522    5.6180 H       1  UNL1        0.0000
     42 H           8.7258   -0.1183    5.6312 H       1  UNL1        0.0000
     43 H           9.4164   -0.3047    7.9848 H       1  UNL1        0.0000
     44 H           8.5386    3.8329    8.5752 H       1  UNL1        0.0000
     45 H           9.3167    1.6649    9.4658 H       1  UNL1        0.0000
     46 H           7.8473    4.0178    6.2206 H       1  UNL1        0.0000
     47 H           7.0580    6.0245    2.5168 H       1  UNL1        0.0000
     48 H           8.4886    5.1559    1.9091 H       1  UNL1        0.0000
     49 H           8.5270    5.8861    3.5113 H       1  UNL1        0.0000
@<TRIPOS>BOND
     1    27     9    1
     2    30    10    1
     3    26     8    1
     4     9    28    1
     5     9    29    1
     6     9     2    1
     7    10    31    1
     8    10     2    1
     9    10    32    1
    10    25     8    1
    11     8     2    1
    12     8    24    1
    13     2     7    1
    14    38    12    1
    15    48    20    1
    16    35    11    1
    17    47    20    1
    18    12    37    1
    19    12    36    1
    20    12     3    1
    21    20     6    1
    22    20    49    1
    23    11    34    1
    24    11    33    1
    25    11     3    1
    26     7    23    1
    27     7     3    1
    28     7     1    1
    29     6     4    2
    30     6    21    1
    31     3    13    1
    32     4     1    1
    33    21     5    1
    34    22     5    1
    35     1     5    1
    36     5    14    1
    37    13    41    1
    38    13    40    1
    39    13    39    1
    40    42    15    1
    41    14    15   ar
    42    14    19   ar
    43    46    19    1
    44    15    16   ar
    45    19    18   ar
    46    16    43    1
    47    16    17   ar
    48    18    17   ar
    49    18    44    1
    50    17    45    1
