@<TRIPOS>MOLECULE
1
 52 54 0 0 0
SMALL
GASTEIGER

@<TRIPOS>ATOM
      1 P           8.0911    6.6124    4.7440 P.3     1  UNL1       -0.0964
      2 C           8.5222    8.2212    5.5638 C.3     1  UNL1       -0.0200
      3 H           7.5335    8.5495    5.9041 H       1  UNL1        0.0349
      4 C           8.9635    9.2625    4.5341 C.3     1  UNL1       -0.0463
      5 H           9.9616    9.0460    4.1519 H       1  UNL1        0.0271
      6 H           8.2563    9.2409    3.6947 H       1  UNL1        0.0271
      7 C           8.9722   10.6425    5.1849 C.3     1  UNL1       -0.0525
      8 H           9.3008   11.3951    4.4646 H       1  UNL1        0.0265
      9 H           7.9586   10.8975    5.4980 H       1  UNL1        0.0265
     10 C           9.9010   10.6482    6.3971 C.3     1  UNL1       -0.0530
     11 H          10.9252   10.4499    6.0695 H       1  UNL1        0.0265
     12 H           9.8891   11.6319    6.8712 H       1  UNL1        0.0265
     13 C           9.4804    9.5840    7.4074 C.3     1  UNL1       -0.0525
     14 H           8.4800    9.8155    7.7793 H       1  UNL1        0.0265
     15 H          10.1639    9.5900    8.2601 H       1  UNL1        0.0265
     16 C           9.4687    8.1995    6.7589 C.3     1  UNL1       -0.0463
     17 H           9.1489    7.4535    7.4897 H       1  UNL1        0.0271
     18 H          10.4840    7.9532    6.4421 H       1  UNL1        0.0271
     19 C           9.6722    5.6151    4.4746 C.3     1  UNL1       -0.0200
     20 H           9.3650    4.8434    3.7551 H       1  UNL1        0.0349
     21 C          10.2939    4.8921    5.6693 C.3     1  UNL1       -0.0463
     22 H          10.6502    5.6130    6.4057 H       1  UNL1        0.0271
     23 H           9.5654    4.2410    6.1526 H       1  UNL1        0.0271
     24 C          11.4647    4.0259    5.1991 C.3     1  UNL1       -0.0525
     25 H          11.9137    3.5230    6.0584 H       1  UNL1        0.0265
     26 H          11.0898    3.2548    4.5212 H       1  UNL1        0.0265
     27 C          12.5186    4.8575    4.4761 C.3     1  UNL1       -0.0530
     28 H          13.3268    4.2114    4.1278 H       1  UNL1        0.0265
     29 H          12.9478    5.5835    5.1707 H       1  UNL1        0.0265
     30 C          11.8903    5.5956    3.2985 C.3     1  UNL1       -0.0525
     31 H          11.5168    4.8714    2.5705 H       1  UNL1        0.0265
     32 H          12.6410    6.2134    2.8011 H       1  UNL1        0.0265
     33 C          10.7408    6.4699    3.7925 C.3     1  UNL1       -0.0463
     34 H          11.1417    7.1909    4.5054 H       1  UNL1        0.0271
     35 H          10.3019    7.0251    2.9607 H       1  UNL1        0.0271
     36 C           7.2356    5.6424    6.0910 C.3     1  UNL1       -0.0200
     37 H           7.9640    5.3384    6.8506 H       1  UNL1        0.0349
     38 C           6.6310    4.4079    5.4180 C.3     1  UNL1       -0.0463
     39 H           5.9486    4.7604    4.6336 H       1  UNL1        0.0271
     40 H           7.4161    3.8104    4.9466 H       1  UNL1        0.0271
     41 C           5.8580    3.5440    6.4086 C.3     1  UNL1       -0.0525
     42 H           5.4346    2.6787    5.8933 H       1  UNL1        0.0265
     43 H           6.5384    3.1721    7.1796 H       1  UNL1        0.0265
     44 C           4.7506    4.3623    7.0614 C.3     1  UNL1       -0.0530
     45 H           4.2022    3.7486    7.7795 H       1  UNL1        0.0265
     46 H           4.0482    4.6968    6.2955 H       1  UNL1        0.0265
     47 C           5.3513    5.5774    7.7576 C.3     1  UNL1       -0.0525
     48 H           6.0193    5.2412    8.5562 H       1  UNL1        0.0265
     49 H           4.5596    6.1733    8.2159 H       1  UNL1        0.0265
     50 C           6.1286    6.4447    6.7701 C.3     1  UNL1       -0.0463
     51 H           5.4555    6.8376    6.0067 H       1  UNL1        0.0271
     52 H           6.5528    7.2914    7.3101 H       1  UNL1        0.0271
@<TRIPOS>BOND
     1    31    30    1
     2    32    30    1
     3    35    33    1
     4    30    33    1
     5    30    27    1
     6     6     4    1
     7    20    19    1
     8    33    19    1
     9    33    34    1
    10    28    27    1
    11     5     4    1
    12     8     7    1
    13    19     1    1
    14    19    21    1
    15    27    29    1
    16    27    24    1
    17    26    24    1
    18     4     7    1
    19     4     2    1
    20    39    38    1
    21     1     2    1
    22     1    36    1
    23    40    38    1
    24     7     9    1
    25     7    10    1
    26    24    21    1
    27    24    25    1
    28    38    36    1
    29    38    41    1
    30     2     3    1
    31     2    16    1
    32    21    23    1
    33    21    22    1
    34    42    41    1
    35    51    50    1
    36    11    10    1
    37    36    50    1
    38    36    37    1
    39    46    44    1
    40    10    12    1
    41    10    13    1
    42    41    44    1
    43    41    43    1
    44    18    16    1
    45    16    13    1
    46    16    17    1
    47    50    52    1
    48    50    47    1
    49    44    47    1
    50    44    45    1
    51    13    14    1
    52    13    15    1
    53    47    49    1
    54    47    48    1
