@<TRIPOS>MOLECULE
1
 34 36 0 0 0
SMALL
GASTEIGER

@<TRIPOS>ATOM
      1 P          -0.7134    8.5891   14.8288 P.3     1  UNL1       -0.0131
      2 C          -2.7633    5.5208   13.0930 C.ar    1  UNL1       -0.0611
      3 H          -3.3894    5.4105   12.2200 H       1  UNL1        0.0618
      4 C          -2.4999    4.4310   13.9045 C.ar    1  UNL1       -0.0617
      5 H          -2.9191    3.4637   13.6693 H       1  UNL1        0.0618
      6 C          -1.6900    4.5846   15.0172 C.ar    1  UNL1       -0.0611
      7 H          -1.4747    3.7365   15.6514 H       1  UNL1        0.0618
      8 C          -1.1496    5.8205   15.3260 C.ar    1  UNL1       -0.0535
      9 H          -0.5159    5.9196   16.1953 H       1  UNL1        0.0624
     10 C          -1.4087    6.9213   14.5130 C.ar    1  UNL1       -0.0147
     11 C          -2.2119    6.7547   13.3868 C.ar    1  UNL1       -0.0535
     12 H          -2.3993    7.5972   12.7354 H       1  UNL1        0.0624
     13 C           2.6126    7.9624   17.1008 C.ar    1  UNL1       -0.0611
     14 H           3.6798    7.9696   16.9353 H       1  UNL1        0.0618
     15 C           2.1000    7.6635   18.3514 C.ar    1  UNL1       -0.0617
     16 H           2.7657    7.4345   19.1711 H       1  UNL1        0.0618
     17 C           0.7278    7.6592   18.5542 C.ar    1  UNL1       -0.0611
     18 H           0.3257    7.4245   19.5296 H       1  UNL1        0.0618
     19 C          -0.1313    7.9513   17.5114 C.ar    1  UNL1       -0.0535
     20 H          -1.2014    7.9436   17.6699 H       1  UNL1        0.0624
     21 C           0.3816    8.2571   16.2513 C.ar    1  UNL1       -0.0147
     22 C           1.7572    8.2574   16.0533 C.ar    1  UNL1       -0.0535
     23 H           2.1534    8.5086   15.0798 H       1  UNL1        0.0624
     24 C          -4.4803    9.8747   15.8205 C.ar    1  UNL1       -0.0611
     25 H          -5.4920    9.6943   15.4876 H       1  UNL1        0.0618
     26 C          -4.2381   10.7727   16.8458 C.ar    1  UNL1       -0.0617
     27 H          -5.0588   11.2888   17.3220 H       1  UNL1        0.0618
     28 C          -2.9376   11.0116   17.2566 C.ar    1  UNL1       -0.0611
     29 H          -2.7407   11.7167   18.0510 H       1  UNL1        0.0618
     30 C          -1.8862   10.3551   16.6460 C.ar    1  UNL1       -0.0535
     31 H          -0.8727   10.5542   16.9670 H       1  UNL1        0.0624
     32 C          -2.1256    9.4241   15.6372 C.ar    1  UNL1       -0.0147
     33 C          -3.4331    9.1998   15.2197 C.ar    1  UNL1       -0.0535
     34 H          -3.6322    8.4992   14.4237 H       1  UNL1        0.0624
@<TRIPOS>BOND
     1     3     2    1
     2    12    11    1
     3     2    11   ar
     4     2     4   ar
     5    11    10   ar
     6     5     4    1
     7     4     6   ar
     8    34    33    1
     9    10     1    1
    10    10     8   ar
    11     1    32    1
    12     1    21    1
    13     6     8   ar
    14     6     7    1
    15    23    22    1
    16    33    32   ar
    17    33    24   ar
    18     8     9    1
    19    25    24    1
    20    32    30   ar
    21    24    26   ar
    22    22    21   ar
    23    22    13   ar
    24    21    19   ar
    25    30    31    1
    26    30    28   ar
    27    26    28   ar
    28    26    27    1
    29    14    13    1
    30    13    15   ar
    31    28    29    1
    32    19    20    1
    33    19    17   ar
    34    15    17   ar
    35    15    16    1
    36    17    18    1
