@<TRIPOS>MOLECULE
1
 13 12 0 0 0
SMALL
GASTEIGER

@<TRIPOS>ATOM
      1 P          -2.5396    5.3205    0.5409 P.3     1  UNL1       -0.1154
      2 C          -3.1481    6.8853    1.3023 C.3     1  UNL1       -0.0447
      3 C          -3.6492    4.1749    1.4842 C.3     1  UNL1       -0.0447
      4 C          -3.5369    5.3866   -1.0112 C.3     1  UNL1       -0.0447
      5 H          -2.7827    6.9424    2.3265 H       1  UNL1        0.0277
      6 H          -2.7454    7.7236    0.7406 H       1  UNL1        0.0277
      7 H          -4.2370    6.9269    1.3014 H       1  UNL1        0.0277
      8 H          -4.6944    4.4344    1.3183 H       1  UNL1        0.0277
      9 H          -3.4816    3.1457    1.1708 H       1  UNL1        0.0277
     10 H          -3.4230    4.2584    2.5453 H       1  UNL1        0.0277
     11 H          -4.5583    5.7017   -0.7985 H       1  UNL1        0.0277
     12 H          -3.0731    6.0879   -1.6992 H       1  UNL1        0.0277
     13 H          -3.5503    4.4065   -1.4836 H       1  UNL1        0.0277
@<TRIPOS>BOND
     1    12     4    1
     2    13     4    1
     3     4    11    1
     4     4     1    1
     5     1     2    1
     6     1     3    1
     7     6     2    1
     8     9     3    1
     9     7     2    1
    10     2     5    1
    11     8     3    1
    12     3    10    1
