@<TRIPOS>MOLECULE
1
 13 12 0 0 0
SMALL
GASTEIGER

@<TRIPOS>ATOM
      1 P           0.1741    3.3342    1.8845 P.3     1  UNL1       -0.1154
      2 C          -0.7890    3.1551    3.4541 C.3     1  UNL1       -0.0447
      3 C           1.8798    3.0698    2.5322 C.3     1  UNL1       -0.0447
      4 C          -0.1064    1.6164    1.2842 C.3     1  UNL1       -0.0447
      5 H          -0.9504    4.1185    3.9284 H       1  UNL1        0.0277
      6 H          -1.7583    2.7250    3.2094 H       1  UNL1        0.0277
      7 H          -0.2697    2.4909    4.1446 H       1  UNL1        0.0277
      8 H           1.9247    2.1698    3.1454 H       1  UNL1        0.0277
      9 H           2.5583    2.9662    1.6865 H       1  UNL1        0.0277
     10 H           2.1938    3.9277    3.1225 H       1  UNL1        0.0277
     11 H          -1.1503    1.4843    1.0066 H       1  UNL1        0.0277
     12 H           0.5115    1.4356    0.4079 H       1  UNL1        0.0277
     13 H           0.1509    0.9009    2.0655 H       1  UNL1        0.0277
@<TRIPOS>BOND
     1    12     4    1
     2    11     4    1
     3     4     1    1
     4     4    13    1
     5     9     3    1
     6     1     3    1
     7     1     2    1
     8     3    10    1
     9     3     8    1
    10     6     2    1
    11     2     5    1
    12     2     7    1
