@<TRIPOS>MOLECULE
1
 13 12 0 0 0
SMALL
GASTEIGER

@<TRIPOS>ATOM
      1 P           3.1348    3.5779    3.3561 P.3     1  UNL1       -0.1154
      2 C           4.3179    3.4970    4.7505 C.3     1  UNL1       -0.0447
      3 C           2.7810    5.3819    3.3768 C.3     1  UNL1       -0.0447
      4 C           1.6014    3.0265    4.2132 C.3     1  UNL1       -0.0447
      5 H           4.5728    2.4572    4.9479 H       1  UNL1        0.0277
      6 H           5.2311    4.0152    4.4610 H       1  UNL1        0.0277
      7 H           3.8916    3.9607    5.6406 H       1  UNL1        0.0277
      8 H           3.6781    5.9400    3.1202 H       1  UNL1        0.0277
      9 H           2.0046    5.6108    2.6502 H       1  UNL1        0.0277
     10 H           2.4470    5.6798    4.3705 H       1  UNL1        0.0277
     11 H           1.4506    3.6131    5.1193 H       1  UNL1        0.0277
     12 H           0.7528    3.1633    3.5471 H       1  UNL1        0.0277
     13 H           1.6730    1.9744    4.4778 H       1  UNL1        0.0277
@<TRIPOS>BOND
     1     9     3    1
     2     8     3    1
     3     1     3    1
     4     1     4    1
     5     1     2    1
     6     3    10    1
     7    12     4    1
     8     4    13    1
     9     4    11    1
    10     6     2    1
    11     2     5    1
    12     2     7    1
