@<TRIPOS>MOLECULE
1
 13 12 0 0 0
SMALL
GASTEIGER

@<TRIPOS>ATOM
      1 P           0.7924    6.6510    1.9891 P.3     1  UNL1       -0.1154
      2 C           0.3358    8.4346    1.9491 C.3     1  UNL1       -0.0447
      3 C           2.6255    6.8577    2.0076 C.3     1  UNL1       -0.0447
      4 C           0.5369    6.4296    3.8089 C.3     1  UNL1       -0.0447
      5 H           0.8689    8.9820    2.7263 H       1  UNL1        0.0277
      6 H           0.5810    8.8493    0.9769 H       1  UNL1        0.0277
      7 H          -0.7358    8.5336    2.1073 H       1  UNL1        0.0277
      8 H           3.1046    5.8882    2.1292 H       1  UNL1        0.0277
      9 H           2.9289    7.2735    1.0505 H       1  UNL1        0.0277
     10 H           2.9359    7.5255    2.8110 H       1  UNL1        0.0277
     11 H          -0.5303    6.4771    4.0226 H       1  UNL1        0.0277
     12 H           0.9183    5.4653    4.1359 H       1  UNL1        0.0277
     13 H           1.0448    7.2209    4.3602 H       1  UNL1        0.0277
@<TRIPOS>BOND
     1     6     2    1
     2     9     3    1
     3     2     1    1
     4     2     7    1
     5     2     5    1
     6     1     3    1
     7     1     4    1
     8     3     8    1
     9     3    10    1
    10     4    11    1
    11     4    12    1
    12     4    13    1
