@<TRIPOS>MOLECULE
1
 13 12 0 0 0
SMALL
GASTEIGER

@<TRIPOS>ATOM
      1 P           2.9148    0.4416    1.9931 P.3     1  UNL1       -0.1154
      2 C           3.3963   -0.2704    3.6139 C.3     1  UNL1       -0.0447
      3 C           3.5254   -0.9020    0.9104 C.3     1  UNL1       -0.0447
      4 C           1.1137    0.0750    1.9623 C.3     1  UNL1       -0.0447
      5 H           2.9870    0.3086    4.4389 H       1  UNL1        0.0277
      6 H           3.0438   -1.2999    3.6795 H       1  UNL1        0.0277
      7 H           4.4838   -0.2429    3.6749 H       1  UNL1        0.0277
      8 H           3.1553   -1.8696    1.2508 H       1  UNL1        0.0277
      9 H           3.1996   -0.7175   -0.1122 H       1  UNL1        0.0277
     10 H           4.6144   -0.8921    0.9422 H       1  UNL1        0.0277
     11 H           0.5827    0.7141    2.6629 H       1  UNL1        0.0277
     12 H           0.7367    0.2708    0.9612 H       1  UNL1        0.0277
     13 H           0.9421   -0.9693    2.2205 H       1  UNL1        0.0277
@<TRIPOS>BOND
     1     9     3    1
     2     3    10    1
     3     3     8    1
     4     3     1    1
     5    12     4    1
     6     4     1    1
     7     4    13    1
     8     4    11    1
     9     1     2    1
    10     2     7    1
    11     2     6    1
    12     2     5    1
