@<TRIPOS>MOLECULE
1
 13 12 0 0 0
SMALL
GASTEIGER

@<TRIPOS>ATOM
      1 P          -0.5968    3.5677    9.7930 P.3     1  UNL1       -0.1154
      2 C           0.6603    4.9120    9.6830 C.3     1  UNL1       -0.0447
      3 H           1.1763    4.8926    8.7239 H       1  UNL1        0.0277
      4 H           1.3791    4.7747   10.4881 H       1  UNL1        0.0277
      5 H           0.1769    5.8769    9.8119 H       1  UNL1        0.0277
      6 C          -1.5146    3.8702    8.2245 C.3     1  UNL1       -0.0447
      7 H          -0.8571    3.7544    7.3635 H       1  UNL1        0.0277
      8 H          -1.9173    4.8803    8.2301 H       1  UNL1        0.0277
      9 H          -2.3403    3.1667    8.1528 H       1  UNL1        0.0277
     10 C           0.4654    2.1523    9.2978 C.3     1  UNL1       -0.0447
     11 H          -0.1407    1.2516    9.2398 H       1  UNL1        0.0277
     12 H           1.2176    2.0030   10.0698 H       1  UNL1        0.0277
     13 H           0.9537    2.3416    8.3418 H       1  UNL1        0.0277
@<TRIPOS>BOND
     1     7     6    1
     2     9     6    1
     3     6     8    1
     4     6     1    1
     5    13    10    1
     6     3     2    1
     7    11    10    1
     8    10     1    1
     9    10    12    1
    10     2     1    1
    11     2     5    1
    12     2     4    1
