@<TRIPOS>MOLECULE
1
 25 24 0 0 0
SMALL
GASTEIGER

@<TRIPOS>ATOM
      1 P           3.4290    2.8427    7.9990 P.3     1  UNL1        0.0000
      2 SI          1.3023    2.7762    7.2482 Si      1  UNL1        0.0000
      3 N           4.8465    5.1944    8.3128 N.3     1  UNL1        0.0000
      4 C           0.6766    1.0191    7.6405 C.3     1  UNL1        0.0000
      5 H          -0.3249    0.8568    7.2549 H       1  UNL1        0.0000
      6 H           0.6525    0.8416    8.7120 H       1  UNL1        0.0000
      7 H           1.3265    0.2683    7.1987 H       1  UNL1        0.0000
      8 C           1.2561    3.1319    5.3681 C.3     1  UNL1        0.0000
      9 H           0.2375    3.1388    4.9920 H       1  UNL1        0.0000
     10 H           1.8068    2.3759    4.8162 H       1  UNL1        0.0000
     11 H           1.7021    4.0955    5.1368 H       1  UNL1        0.0000
     12 C           0.2389    4.0684    8.1773 C.3     1  UNL1        0.0000
     13 H           0.3959    5.0725    7.7963 H       1  UNL1        0.0000
     14 H           0.4615    4.0752    9.2398 H       1  UNL1        0.0000
     15 H          -0.8158    3.8420    8.0618 H       1  UNL1        0.0000
     16 C           3.7187    4.5184    8.0345 C.3     1  UNL1        0.0000
     17 H           2.8640    5.1621    7.8670 H       1  UNL1        0.0000
     18 C           4.8231    6.6148    8.5455 C.3     1  UNL1        0.0000
     19 H           5.6396    7.0930    7.9992 H       1  UNL1        0.0000
     20 H           4.9460    6.8385    9.6107 H       1  UNL1        0.0000
     21 H           3.8807    7.0394    8.2067 H       1  UNL1        0.0000
     22 C           6.0602    4.5251    8.6904 C.3     1  UNL1        0.0000
     23 H           6.1015    4.3561    9.7722 H       1  UNL1        0.0000
     24 H           6.9182    5.1310    8.3976 H       1  UNL1        0.0000
     25 H           6.1150    3.5591    8.1865 H       1  UNL1        0.0000
@<TRIPOS>BOND
     1    10     8    1
     2     9     8    1
     3    11     8    1
     4     8     2    1
     5     7     4    1
     6     2     4    1
     7     2     1    1
     8     2    12    1
     9     5     4    1
    10     4     6    1
    11    13    12    1
    12    17    16    1
    13     1    16    1
    14    19    18    1
    15    16     3    1
    16    15    12    1
    17    12    14    1
    18    25    22    1
    19    21    18    1
    20     3    18    1
    21     3    22    1
    22    24    22    1
    23    18    20    1
    24    22    23    1
