@<TRIPOS>MOLECULE
1
 24 25 0 0 0
SMALL
GASTEIGER

@<TRIPOS>ATOM
      1 P           1.9330    8.9802    3.2883 P.3     1  UNL1       -0.0588
      2 H           2.4403    7.6810    3.1603 H       1  UNL1        0.0671
      3 C           3.1244    9.5952    4.5091 C.ar    1  UNL1       -0.0220
      4 C           3.7524   10.8273    4.3575 C.ar    1  UNL1       -0.0541
      5 H           3.5759   11.4192    3.4692 H       1  UNL1        0.0624
      6 C           4.6165   11.2825    5.3385 C.ar    1  UNL1       -0.0612
      7 H           5.1097   12.2350    5.2186 H       1  UNL1        0.0618
      8 C           4.8502   10.5168    6.4690 C.ar    1  UNL1       -0.0617
      9 H           5.5256   10.8745    7.2305 H       1  UNL1        0.0618
     10 C           4.2218    9.2895    6.6235 C.ar    1  UNL1       -0.0612
     11 H           4.4099    8.6928    7.5027 H       1  UNL1        0.0618
     12 C           3.3559    8.8279    5.6502 C.ar    1  UNL1       -0.0541
     13 H           2.8605    7.8712    5.7603 H       1  UNL1        0.0624
     14 C           2.5303    9.6650    1.7200 C.ar    1  UNL1       -0.0220
     15 C           1.7377   10.5589    1.0101 C.ar    1  UNL1       -0.0541
     16 H           0.7597   10.8209    1.3954 H       1  UNL1        0.0624
     17 C           2.2009   11.1022   -0.1755 C.ar    1  UNL1       -0.0612
     18 H           1.5885   11.7987   -0.7280 H       1  UNL1        0.0618
     19 C           3.4527   10.7487   -0.6526 C.ar    1  UNL1       -0.0617
     20 H           3.8138   11.1697   -1.5780 H       1  UNL1        0.0618
     21 C           4.2439    9.8529    0.0526 C.ar    1  UNL1       -0.0612
     22 H           5.2166    9.5788   -0.3256 H       1  UNL1        0.0618
     23 C           3.7888    9.3090    1.2387 C.ar    1  UNL1       -0.0541
     24 H           4.3986    8.6120    1.7978 H       1  UNL1        0.0624
@<TRIPOS>BOND
     1    20    19    1
     2    18    17    1
     3    19    17   ar
     4    19    21   ar
     5    22    21    1
     6    17    15   ar
     7    21    23   ar
     8    15    16    1
     9    15    14   ar
    10    23    14   ar
    11    23    24    1
    12    14     1    1
    13     2     1    1
    14     1     3    1
    15     5     4    1
    16     4     3   ar
    17     4     6   ar
    18     3    12   ar
    19     7     6    1
    20     6     8   ar
    21    12    13    1
    22    12    10   ar
    23     8    10   ar
    24     8     9    1
    25    10    11    1
