@<TRIPOS>MOLECULE
1
 34 36 0 0 0
SMALL
GASTEIGER

@<TRIPOS>ATOM
      1 P           6.3907   -2.6183   13.6763 P.3     1  UNL1       -0.0131
      2 C           6.6635   -3.1896   15.3878 C.ar    1  UNL1       -0.0147
      3 C           5.5502   -3.6950   16.0572 C.ar    1  UNL1       -0.0535
      4 C           5.6824   -4.2563   17.3118 C.ar    1  UNL1       -0.0611
      5 C           6.9345   -4.3375   17.9036 C.ar    1  UNL1       -0.0617
      6 C           8.0479   -3.8601   17.2335 C.ar    1  UNL1       -0.0611
      7 C           7.9171   -3.2921   15.9773 C.ar    1  UNL1       -0.0535
      8 C           7.9080   -1.6412   13.3497 C.ar    1  UNL1       -0.0147
      9 C           8.6940   -1.9751   12.2546 C.ar    1  UNL1       -0.0535
     10 C           9.8586   -1.2773   11.9909 C.ar    1  UNL1       -0.0611
     11 C          10.2443   -0.2385   12.8205 C.ar    1  UNL1       -0.0617
     12 C           9.4578    0.1083   13.9078 C.ar    1  UNL1       -0.0611
     13 C           8.2920   -0.5857   14.1717 C.ar    1  UNL1       -0.0535
     14 C           5.2450   -1.2128   13.9411 C.ar    1  UNL1       -0.0147
     15 C           4.9676   -0.6462   15.1804 C.ar    1  UNL1       -0.0535
     16 C           4.1324    0.4547   15.2685 C.ar    1  UNL1       -0.0611
     17 C           3.5718    1.0014   14.1266 C.ar    1  UNL1       -0.0617
     18 C           3.8436    0.4419   12.8881 C.ar    1  UNL1       -0.0611
     19 C           4.6742   -0.6593   12.7984 C.ar    1  UNL1       -0.0535
     20 H           4.5843   -3.6399   15.5726 H       1  UNL1        0.0624
     21 H           4.8143   -4.6387   17.8293 H       1  UNL1        0.0618
     22 H           7.0416   -4.7799   18.8831 H       1  UNL1        0.0618
     23 H           9.0247   -3.9343   17.6895 H       1  UNL1        0.0618
     24 H           8.7900   -2.9255   15.4549 H       1  UNL1        0.0624
     25 H           8.3732   -2.7858   11.6159 H       1  UNL1        0.0624
     26 H          10.4646   -1.5404   11.1366 H       1  UNL1        0.0618
     27 H          11.1559    0.3044   12.6193 H       1  UNL1        0.0618
     28 H           9.7567    0.9226   14.5523 H       1  UNL1        0.0618
     29 H           7.6779   -0.3147   15.0197 H       1  UNL1        0.0624
     30 H           5.3956   -1.0654   16.0805 H       1  UNL1        0.0624
     31 H           3.9199    0.8882   16.2354 H       1  UNL1        0.0618
     32 H           2.9213    1.8604   14.2019 H       1  UNL1        0.0618
     33 H           3.4062    0.8595   11.9929 H       1  UNL1        0.0618
     34 H           4.8833   -1.1145   11.8421 H       1  UNL1        0.0624
@<TRIPOS>BOND
     1    26    10    1
     2    25     9    1
     3    34    19    1
     4    10     9   ar
     5    10    11   ar
     6    33    18    1
     7     9     8   ar
     8    27    11    1
     9    19    18   ar
    10    19    14   ar
    11    11    12   ar
    12    18    17   ar
    13     8     1    1
    14     8    13   ar
    15     1    14    1
    16     1     2    1
    17    12    13   ar
    18    12    28    1
    19    14    15   ar
    20    17    32    1
    21    17    16   ar
    22    13    29    1
    23    15    16   ar
    24    15    30    1
    25    16    31    1
    26     2     7   ar
    27     2     3   ar
    28    24     7    1
    29    20     3    1
    30     7     6   ar
    31     3     4   ar
    32     6    23    1
    33     6     5   ar
    34     4    21    1
    35     4     5   ar
    36     5    22    1
