@<TRIPOS>MOLECULE
1
 34 36 0 0 0
SMALL
GASTEIGER

@<TRIPOS>ATOM
      1 P          26.1713    1.2680   25.6489 P.3     1  UNL1       -0.0131
      2 C          25.9606    3.0615   25.9570 C.ar    1  UNL1       -0.0147
      3 C          24.9048    3.6699   25.2811 C.ar    1  UNL1       -0.0535
      4 H          24.2913    3.0747   24.6157 H       1  UNL1        0.0624
      5 C          24.6516    5.0164   25.4492 C.ar    1  UNL1       -0.0611
      6 H          23.8335    5.4814   24.9193 H       1  UNL1        0.0618
      7 C          25.4509    5.7702   26.2947 C.ar    1  UNL1       -0.0617
      8 H          25.2569    6.8244   26.4260 H       1  UNL1        0.0618
      9 C          26.4993    5.1696   26.9688 C.ar    1  UNL1       -0.0611
     10 H          27.1236    5.7535   27.6298 H       1  UNL1        0.0618
     11 C          26.7575    3.8188   26.8042 C.ar    1  UNL1       -0.0535
     12 H          27.5788    3.3636   27.3397 H       1  UNL1        0.0624
     13 C          27.4286    0.8270   26.8950 C.ar    1  UNL1       -0.0147
     14 C          28.7310    1.2481   26.6329 C.ar    1  UNL1       -0.0535
     15 H          28.9267    1.8136   25.7311 H       1  UNL1        0.0624
     16 C          29.7563    0.9578   27.5105 C.ar    1  UNL1       -0.0611
     17 H          30.7614    1.2909   27.2952 H       1  UNL1        0.0618
     18 C          29.4901    0.2414   28.6664 C.ar    1  UNL1       -0.0617
     19 H          30.2869    0.0164   29.3598 H       1  UNL1        0.0618
     20 C          28.2012   -0.1908   28.9264 C.ar    1  UNL1       -0.0611
     21 H          27.9915   -0.7549   29.8237 H       1  UNL1        0.0618
     22 C          27.1727    0.0900   28.0436 C.ar    1  UNL1       -0.0535
     23 H          26.1754   -0.2685   28.2535 H       1  UNL1        0.0624
     24 C          24.6020    0.7319   26.4230 C.ar    1  UNL1       -0.0147
     25 C          24.2411    1.2220   27.6766 C.ar    1  UNL1       -0.0535
     26 H          24.8964    1.9105   28.1931 H       1  UNL1        0.0624
     27 C          23.0467    0.8357   28.2529 C.ar    1  UNL1       -0.0611
     28 H          22.7742    1.2148   29.2273 H       1  UNL1        0.0618
     29 C          22.1952   -0.0299   27.5828 C.ar    1  UNL1       -0.0617
     30 H          21.2621   -0.3285   28.0374 H       1  UNL1        0.0618
     31 C          22.5359   -0.4977   26.3261 C.ar    1  UNL1       -0.0611
     32 H          21.8669   -1.1573   25.7923 H       1  UNL1        0.0618
     33 C          23.7339   -0.1140   25.7484 C.ar    1  UNL1       -0.0535
     34 H          23.9905   -0.4584   24.7555 H       1  UNL1        0.0624
@<TRIPOS>BOND
     1     4     3    1
     2    34    33    1
     3     6     5    1
     4     3     5   ar
     5     3     2   ar
     6     5     7   ar
     7     1     2    1
     8     1    24    1
     9     1    13    1
    10    15    14    1
    11    33    31   ar
    12    33    24   ar
    13    32    31    1
    14     2    11   ar
    15     7     8    1
    16     7     9   ar
    17    31    29   ar
    18    24    25   ar
    19    14    13   ar
    20    14    16   ar
    21    11     9   ar
    22    11    12    1
    23    13    22   ar
    24     9    10    1
    25    17    16    1
    26    16    18   ar
    27    29    30    1
    28    29    27   ar
    29    25    26    1
    30    25    27   ar
    31    22    23    1
    32    22    20   ar
    33    27    28    1
    34    18    20   ar
    35    18    19    1
    36    20    21    1
