@<TRIPOS>MOLECULE
1
 34 36 0 0 0
SMALL
GASTEIGER

@<TRIPOS>ATOM
      1 P          28.2199   -1.0771   23.5594 P.3     1  UNL1       -0.0131
      2 C          27.9575   -2.5205   22.4591 C.ar    1  UNL1       -0.0147
      3 C          27.2974   -3.6867   22.8234 C.ar    1  UNL1       -0.0535
      4 H          26.9317   -3.8219   23.8314 H       1  UNL1        0.0624
      5 C          27.1110   -4.6954   21.8926 C.ar    1  UNL1       -0.0611
      6 H          26.5960   -5.5991   22.1851 H       1  UNL1        0.0618
      7 C          27.5782   -4.5524   20.5978 C.ar    1  UNL1       -0.0617
      8 H          27.4255   -5.3414   19.8768 H       1  UNL1        0.0618
      9 C          28.2407   -3.3918   20.2295 C.ar    1  UNL1       -0.0611
     10 H          28.6053   -3.2701   19.2203 H       1  UNL1        0.0618
     11 C          28.4240   -2.3819   21.1536 C.ar    1  UNL1       -0.0535
     12 H          28.9334   -1.4717   20.8742 H       1  UNL1        0.0624
     13 C          30.0478   -0.9962   23.5236 C.ar    1  UNL1       -0.0147
     14 C          30.6789    0.2302   23.6904 C.ar    1  UNL1       -0.0535
     15 H          30.0795    1.1256   23.7856 H       1  UNL1        0.0624
     16 C          32.0602    0.3112   23.7090 C.ar    1  UNL1       -0.0611
     17 H          32.5412    1.2697   23.8375 H       1  UNL1        0.0618
     18 C          32.8212   -0.8344   23.5513 C.ar    1  UNL1       -0.0617
     19 H          33.8994   -0.7739   23.5602 H       1  UNL1        0.0618
     20 C          32.1980   -2.0602   23.3758 C.ar    1  UNL1       -0.0611
     21 H          32.7902   -2.9548   23.2493 H       1  UNL1        0.0618
     22 C          30.8186   -2.1451   23.3642 C.ar    1  UNL1       -0.0535
     23 H          30.3365   -3.1044   23.2343 H       1  UNL1        0.0624
     24 C          27.9583   -1.8544   25.1979 C.ar    1  UNL1       -0.0147
     25 C          29.0018   -2.1596   26.0645 C.ar    1  UNL1       -0.0535
     26 H          30.0180   -1.8942   25.8127 H       1  UNL1        0.0624
     27 C          28.7458   -2.8064   27.2603 C.ar    1  UNL1       -0.0611
     28 H          29.5672   -3.0454   27.9199 H       1  UNL1        0.0618
     29 C          27.4518   -3.1494   27.6128 C.ar    1  UNL1       -0.0617
     30 H          27.2604   -3.6616   28.5440 H       1  UNL1        0.0618
     31 C          26.4028   -2.8204   26.7714 C.ar    1  UNL1       -0.0611
     32 H          25.3858   -3.0666   27.0425 H       1  UNL1        0.0618
     33 C          26.6565   -2.1763   25.5758 C.ar    1  UNL1       -0.0535
     34 H          25.8319   -1.9243   24.9227 H       1  UNL1        0.0624
@<TRIPOS>BOND
     1    10     9    1
     2     8     7    1
     3     9     7   ar
     4     9    11   ar
     5     7     5   ar
     6    12    11    1
     7    11     2   ar
     8     5     6    1
     9     5     3   ar
    10     2     3   ar
    11     2     1    1
    12     3     4    1
    13    23    22    1
    14    21    20    1
    15    22    20   ar
    16    22    13   ar
    17    20    18   ar
    18    13     1    1
    19    13    14   ar
    20    18    19    1
    21    18    16   ar
    22     1    24    1
    23    14    16   ar
    24    14    15    1
    25    16    17    1
    26    34    33    1
    27    24    33   ar
    28    24    25   ar
    29    33    31   ar
    30    26    25    1
    31    25    27   ar
    32    31    32    1
    33    31    29   ar
    34    27    29   ar
    35    27    28    1
    36    29    30    1
