@<TRIPOS>MOLECULE
1
 20 20 0 0 0
SMALL
GASTEIGER

@<TRIPOS>ATOM
      1 P           1.9318   21.4777    8.7983 P.3     1  UNL1       -0.0810
      2 C           2.0046   22.5475    7.3140 C.3     1  UNL1       -0.0405
      3 H           2.3026   23.5621    7.5794 H       1  UNL1        0.0280
      4 H           1.0423   22.5528    6.8033 H       1  UNL1        0.0280
      5 H           2.7446   22.1128    6.6428 H       1  UNL1        0.0280
      6 C           3.6619   21.6621    9.3723 C.3     1  UNL1       -0.0405
      7 H           3.8948   22.7207    9.4922 H       1  UNL1        0.0280
      8 H           4.3105   21.2226    8.6147 H       1  UNL1        0.0280
      9 H           3.7976   21.1453   10.3201 H       1  UNL1        0.0280
     10 C           1.0628   22.5134   10.0253 C.ar    1  UNL1       -0.0239
     11 C           0.2535   23.5898    9.6817 C.ar    1  UNL1       -0.0542
     12 H           0.1542   23.8903    8.6487 H       1  UNL1        0.0624
     13 C          -0.4323   24.2859   10.6626 C.ar    1  UNL1       -0.0612
     14 H          -1.0583   25.1225   10.3869 H       1  UNL1        0.0618
     15 C          -0.3229   23.9124   11.9911 C.ar    1  UNL1       -0.0617
     16 H          -0.8635   24.4560   12.7520 H       1  UNL1        0.0618
     17 C           0.4760   22.8346   12.3399 C.ar    1  UNL1       -0.0612
     18 H           0.5609   22.5317   13.3736 H       1  UNL1        0.0618
     19 C           1.1599   22.1382   11.3625 C.ar    1  UNL1       -0.0542
     20 H           1.7683   21.2857   11.6286 H       1  UNL1        0.0624
@<TRIPOS>BOND
     1     5     2    1
     2     4     2    1
     3     2     3    1
     4     2     1    1
     5     8     6    1
     6    12    11    1
     7     1     6    1
     8     1    10    1
     9     6     7    1
    10     6     9    1
    11    11    10   ar
    12    11    13   ar
    13    10    19   ar
    14    14    13    1
    15    13    15   ar
    16    19    20    1
    17    19    17   ar
    18    15    17   ar
    19    15    16    1
    20    17    18    1
