@<TRIPOS>MOLECULE
1
 13 12 0 0 0
SMALL
GASTEIGER

@<TRIPOS>ATOM
      1 P           1.2879    9.7855   12.4670 P.3     1  UNL1       -0.1154
      2 C           0.1811    9.9354   13.9189 C.3     1  UNL1       -0.0447
      3 H           0.6323    9.4394   14.7783 H       1  UNL1        0.0277
      4 H          -0.7668    9.4575   13.6745 H       1  UNL1        0.0277
      5 H           0.0139   10.9863   14.1492 H       1  UNL1        0.0277
      6 C           2.8319   10.4983   13.1709 C.3     1  UNL1       -0.0447
      7 H           3.0048   10.1029   14.1717 H       1  UNL1        0.0277
      8 H           2.7422   11.5829   13.2182 H       1  UNL1        0.0277
      9 H           3.6732   10.2392   12.5302 H       1  UNL1        0.0277
     10 C           1.6738    7.9979   12.5761 C.3     1  UNL1       -0.0447
     11 H           2.1239    7.7591   13.5397 H       1  UNL1        0.0277
     12 H           2.3509    7.7167   11.7709 H       1  UNL1        0.0277
     13 H           0.7464    7.4411   12.4531 H       1  UNL1        0.0277
@<TRIPOS>BOND
     1    12    10    1
     2    13    10    1
     3     1    10    1
     4     1     6    1
     5     1     2    1
     6     9     6    1
     7    10    11    1
     8     6     8    1
     9     6     7    1
    10     4     2    1
    11     2     5    1
    12     2     3    1
