@<TRIPOS>MOLECULE
1
 13 12 0 0 0
SMALL
GASTEIGER

@<TRIPOS>ATOM
      1 P          -0.7383   12.1426   11.0085 P.3     1  UNL1       -0.1154
      2 C          -1.4895   13.0431    9.5929 C.3     1  UNL1       -0.0447
      3 H          -2.1734   13.8121    9.9515 H       1  UNL1        0.0277
      4 H          -2.0349   12.3262    8.9812 H       1  UNL1        0.0277
      5 H          -0.7132   13.5033    8.9851 H       1  UNL1        0.0277
      6 C          -0.0297   13.5564   11.9515 C.3     1  UNL1       -0.0447
      7 H          -0.7722   14.3413   12.0920 H       1  UNL1        0.0277
      8 H           0.8260   13.9560   11.4091 H       1  UNL1        0.0277
      9 H           0.3118   13.1963   12.9209 H       1  UNL1        0.0277
     10 C          -2.2600   11.8369   11.9822 C.3     1  UNL1       -0.0447
     11 H          -2.7899   12.7749   12.1494 H       1  UNL1        0.0277
     12 H          -2.0072   11.3793   12.9348 H       1  UNL1        0.0277
     13 H          -2.8937   11.1432   11.4339 H       1  UNL1        0.0277
@<TRIPOS>BOND
     1     4     2    1
     2     5     2    1
     3     2     3    1
     4     2     1    1
     5     1     6    1
     6     1    10    1
     7     8     6    1
     8    13    10    1
     9     6     7    1
    10     6     9    1
    11    10    11    1
    12    10    12    1
