@<TRIPOS>MOLECULE
1
 20 20 0 0 0
SMALL
GASTEIGER

@<TRIPOS>ATOM
      1 P           2.2536   18.2190    9.8317 P.3     1  UNL1       -0.0810
      2 C           4.0124   17.9340    9.4112 C.3     1  UNL1       -0.0405
      3 H           4.5056   17.3793   10.2097 H       1  UNL1        0.0280
      4 H           4.5262   18.8730    9.2190 H       1  UNL1        0.0280
      5 H           4.0295   17.3430    8.4966 H       1  UNL1        0.0280
      6 C           1.7440   16.4590    9.9594 C.3     1  UNL1       -0.0405
      7 H           2.4678   15.9083   10.5605 H       1  UNL1        0.0280
      8 H           1.7221   16.0562    8.9458 H       1  UNL1        0.0280
      9 H           0.7572   16.3617   10.4052 H       1  UNL1        0.0280
     10 C           2.3377   18.6860   11.5995 C.ar    1  UNL1       -0.0239
     11 C           3.4977   19.1534   12.2087 C.ar    1  UNL1       -0.0542
     12 H           4.4231   19.2004   11.6545 H       1  UNL1        0.0624
     13 C           3.4769   19.5630   13.5314 C.ar    1  UNL1       -0.0612
     14 H           4.3839   19.9252   13.9930 H       1  UNL1        0.0618
     15 C           2.3015   19.5137   14.2610 C.ar    1  UNL1       -0.0617
     16 H           2.2893   19.8362   15.2915 H       1  UNL1        0.0618
     17 C           1.1399   19.0534   13.6616 C.ar    1  UNL1       -0.0612
     18 H           0.2184   19.0153   14.2245 H       1  UNL1        0.0618
     19 C           1.1592   18.6499   12.3405 C.ar    1  UNL1       -0.0542
     20 H           0.2480   18.3107   11.8694 H       1  UNL1        0.0624
@<TRIPOS>BOND
     1     5     2    1
     2     8     6    1
     3     4     2    1
     4     2     1    1
     5     2     3    1
     6     1     6    1
     7     1    10    1
     8     6     9    1
     9     6     7    1
    10    10    11   ar
    11    10    19   ar
    12    12    11    1
    13    20    19    1
    14    11    13   ar
    15    19    17   ar
    16    13    14    1
    17    13    15   ar
    18    17    18    1
    19    17    15   ar
    20    15    16    1
