@<TRIPOS>MOLECULE
1
 13 12 0 0 0
SMALL
GASTEIGER

@<TRIPOS>ATOM
      1 P           5.3455    1.4168    2.6469 P.3     1  UNL1       -0.1154
      2 C           5.9936   -0.2779    2.4041 C.3     1  UNL1       -0.0447
      3 H           5.1746   -0.9544    2.1601 H       1  UNL1        0.0277
      4 H           6.4842   -0.6124    3.3166 H       1  UNL1        0.0277
      5 H           6.7136   -0.2569    1.5871 H       1  UNL1        0.0277
      6 C           4.1643    1.1125    4.0245 C.3     1  UNL1       -0.0447
      7 H           3.5726    0.2203    3.8207 H       1  UNL1        0.0277
      8 H           3.5022    1.9699    4.1315 H       1  UNL1        0.0277
      9 H           4.7201    0.9769    4.9515 H       1  UNL1        0.0277
     10 C           4.1883    1.5066    1.2292 C.3     1  UNL1       -0.0447
     11 H           3.4375    0.7189    1.2928 H       1  UNL1        0.0277
     12 H           4.7652    1.3947    0.3128 H       1  UNL1        0.0277
     13 H           3.7029    2.4815    1.2104 H       1  UNL1        0.0277
@<TRIPOS>BOND
     1    12    10    1
     2    13    10    1
     3    10    11    1
     4    10     1    1
     5     5     2    1
     6     3     2    1
     7     2     1    1
     8     2     4    1
     9     1     6    1
    10     7     6    1
    11     6     8    1
    12     6     9    1
