@<TRIPOS>MOLECULE
1
 13 12 0 0 0
SMALL
GASTEIGER

@<TRIPOS>ATOM
      1 P           8.5229    2.1932    3.7359 P.3     1  UNL1       -0.1154
      2 C           9.9819    3.3047    3.8372 C.3     1  UNL1       -0.0447
      3 H          10.8093    2.8047    4.3406 H       1  UNL1        0.0277
      4 H           9.7221    4.2118    4.3799 H       1  UNL1        0.0277
      5 H          10.2772    3.5764    2.8238 H       1  UNL1        0.0277
      6 C           8.4058    1.6306    5.4854 C.3     1  UNL1       -0.0447
      7 H           9.3582    1.2187    5.8179 H       1  UNL1        0.0277
      8 H           7.6325    0.8664    5.5550 H       1  UNL1        0.0277
      9 H           8.1270    2.4674    6.1233 H       1  UNL1        0.0277
     10 C           9.3192    0.7141    3.0000 C.3     1  UNL1       -0.0447
     11 H          10.3297    0.6075    3.3936 H       1  UNL1        0.0277
     12 H           9.3486    0.8194    1.9179 H       1  UNL1        0.0277
     13 H           8.7401   -0.1728    3.2447 H       1  UNL1        0.0277
@<TRIPOS>BOND
     1    12    10    1
     2     5     2    1
     3    10    13    1
     4    10    11    1
     5    10     1    1
     6     1     2    1
     7     1     6    1
     8     2     3    1
     9     2     4    1
    10     6     8    1
    11     6     7    1
    12     6     9    1
