@<TRIPOS>MOLECULE
1
 13 12 0 0 0
SMALL
GASTEIGER

@<TRIPOS>ATOM
      1 P           3.4011    7.1311    5.4029 P.3     1  UNL1       -0.1154
      2 C           2.7608    6.3587    6.9349 C.3     1  UNL1       -0.0447
      3 H           3.2780    6.7708    7.8024 H       1  UNL1        0.0277
      4 H           2.9330    5.2845    6.8829 H       1  UNL1        0.0277
      5 H           1.6886    6.5226    7.0236 H       1  UNL1        0.0277
      6 C           3.3310    8.9010    5.9111 C.3     1  UNL1       -0.0447
      7 H           3.9597    9.0714    6.7852 H       1  UNL1        0.0277
      8 H           2.3046    9.1667    6.1556 H       1  UNL1        0.0277
      9 H           3.6623    9.5383    5.0958 H       1  UNL1        0.0277
     10 C           5.1874    6.8025    5.6974 C.3     1  UNL1       -0.0447
     11 H           5.4996    7.3000    6.6162 H       1  UNL1        0.0277
     12 H           5.7991    7.1523    4.8703 H       1  UNL1        0.0277
     13 H           5.3400    5.7297    5.7990 H       1  UNL1        0.0277
@<TRIPOS>BOND
     1    12    10    1
     2     9     6    1
     3     1    10    1
     4     1     6    1
     5     1     2    1
     6    10    13    1
     7    10    11    1
     8     6     8    1
     9     6     7    1
    10     4     2    1
    11     2     5    1
    12     2     3    1
