@<TRIPOS>MOLECULE
1
 13 12 0 0 0
SMALL
GASTEIGER

@<TRIPOS>ATOM
      1 P           0.7272    7.7779   12.4753 P.3     1  UNL1       -0.1154
      2 C           0.7464    6.0133   11.9470 C.3     1  UNL1       -0.0447
      3 H           0.1387    5.8808   11.0517 H       1  UNL1        0.0277
      4 H           0.3634    5.3792   12.7419 H       1  UNL1        0.0277
      5 H           1.7681    5.7086   11.7302 H       1  UNL1        0.0277
      6 C          -1.0464    8.1661   12.1882 C.3     1  UNL1       -0.0447
      7 H          -1.3767    7.6773   11.2710 H       1  UNL1        0.0277
      8 H          -1.1633    9.2434   12.0846 H       1  UNL1        0.0277
      9 H          -1.6682    7.8394   13.0173 H       1  UNL1        0.0277
     10 C           1.3958    8.5519   10.9562 C.3     1  UNL1       -0.0447
     11 H           0.8684    8.1677   10.0823 H       1  UNL1        0.0277
     12 H           2.4628    8.3577   10.8665 H       1  UNL1        0.0277
     13 H           1.2557    9.6300   11.0220 H       1  UNL1        0.0277
@<TRIPOS>BOND
     1    11    10    1
     2    12    10    1
     3    10    13    1
     4    10     1    1
     5     3     2    1
     6     7     6    1
     7     5     2    1
     8     2     1    1
     9     2     4    1
    10     8     6    1
    11     6     1    1
    12     6     9    1
