@<TRIPOS>MOLECULE
1
 13 12 0 0 0
SMALL
GASTEIGER

@<TRIPOS>ATOM
      1 P           0.2643    8.0574    3.9438 P.3     1  UNL1       -0.1154
      2 C           0.3721    9.8443    3.5304 C.3     1  UNL1       -0.0447
      3 H          -0.5826   10.3421    3.7002 H       1  UNL1        0.0277
      4 H           0.6616    9.9507    2.4864 H       1  UNL1        0.0277
      5 H           1.1412   10.3112    4.1441 H       1  UNL1        0.0277
      6 C          -1.3066    7.6039    3.1196 C.3     1  UNL1       -0.0447
      7 H          -2.1230    8.2443    3.4565 H       1  UNL1        0.0277
      8 H          -1.5242    6.5652    3.3691 H       1  UNL1        0.0277
      9 H          -1.1916    7.6857    2.0404 H       1  UNL1        0.0277
     10 C          -0.3988    8.1556    5.6594 C.3     1  UNL1       -0.0447
     11 H          -1.2827    8.7937    5.6676 H       1  UNL1        0.0277
     12 H           0.3357    8.5576    6.3540 H       1  UNL1        0.0277
     13 H          -0.6723    7.1488    5.9741 H       1  UNL1        0.0277
@<TRIPOS>BOND
     1     9     6    1
     2     4     2    1
     3     6     8    1
     4     6     7    1
     5     6     1    1
     6     2     3    1
     7     2     1    1
     8     2     5    1
     9     1    10    1
    10    10    11    1
    11    10    13    1
    12    10    12    1
