@<TRIPOS>MOLECULE
1
 13 12 0 0 0
SMALL
GASTEIGER

@<TRIPOS>ATOM
      1 P           3.8307    6.7322   13.9096 P.3     1  UNL1       -0.1154
      2 C           3.6634    4.9473   14.3072 C.3     1  UNL1       -0.0447
      3 H           4.5977    4.4186   14.1187 H       1  UNL1        0.0277
      4 H           2.8685    4.5104   13.7046 H       1  UNL1        0.0277
      5 H           3.3887    4.8456   15.3560 H       1  UNL1        0.0277
      6 C           5.4115    7.1249   14.7411 C.3     1  UNL1       -0.0447
      7 H           6.2088    6.4700   14.3867 H       1  UNL1        0.0277
      8 H           5.2954    7.0183   15.8182 H       1  UNL1        0.0277
      9 H           5.6590    8.1628   14.5175 H       1  UNL1        0.0277
     10 C           4.4856    6.6462   12.1909 C.3     1  UNL1       -0.0447
     11 H           5.3535    5.9868   12.1714 H       1  UNL1        0.0277
     12 H           4.7851    7.6514   11.8948 H       1  UNL1        0.0277
     13 H           3.7423    6.2752   11.4888 H       1  UNL1        0.0277
@<TRIPOS>BOND
     1    13    10    1
     2    12    10    1
     3    11    10    1
     4    10     1    1
     5     4     2    1
     6     1     2    1
     7     1     6    1
     8     3     2    1
     9     2     5    1
    10     7     6    1
    11     9     6    1
    12     6     8    1
