@<TRIPOS>MOLECULE
1
 13 12 0 0 0
SMALL
GASTEIGER

@<TRIPOS>ATOM
      1 P           5.7544    4.0475    0.5621 P.3     1  UNL1       -0.1154
      2 C           5.1366    4.5298   -1.1004 C.3     1  UNL1       -0.0447
      3 H           5.9367    4.9969   -1.6742 H       1  UNL1        0.0277
      4 H           4.3162    5.2334   -0.9655 H       1  UNL1        0.0277
      5 H           4.7675    3.6567   -1.6292 H       1  UNL1        0.0277
      6 C           6.4952    5.6623    1.0329 C.3     1  UNL1       -0.0447
      7 H           7.0414    6.0808    0.1877 H       1  UNL1        0.0277
      8 H           7.1778    5.5025    1.8641 H       1  UNL1        0.0277
      9 H           5.7037    6.3445    1.3367 H       1  UNL1        0.0277
     10 C           7.2998    3.1520    0.1416 C.3     1  UNL1       -0.0447
     11 H           7.9098    3.7557   -0.5298 H       1  UNL1        0.0277
     12 H           7.0697    2.1976   -0.3260 H       1  UNL1        0.0277
     13 H           7.8430    2.9619    1.0661 H       1  UNL1        0.0277
@<TRIPOS>BOND
     1     3     2    1
     2     5     2    1
     3     2     4    1
     4     2     1    1
     5    11    10    1
     6    12    10    1
     7    10     1    1
     8    10    13    1
     9     7     6    1
    10     1     6    1
    11     6     9    1
    12     6     8    1
