@<TRIPOS>MOLECULE
1
 34 36 0 0 0
SMALL
GASTEIGER

@<TRIPOS>ATOM
      1 P           7.1136    3.8051   16.0123 P.3     1  UNL1       -0.0131
      2 C           4.8074    4.8600   17.1373 C.ar    1  UNL1       -0.0535
      3 H           4.7005    5.3316   16.1716 H       1  UNL1        0.0624
      4 C           5.8897    4.0181   17.3599 C.ar    1  UNL1       -0.0147
      5 C           3.8801    5.0973   18.1365 C.ar    1  UNL1       -0.0611
      6 H           3.0488    5.7603   17.9479 H       1  UNL1        0.0618
      7 C           4.0224    4.4904   19.3718 C.ar    1  UNL1       -0.0617
      8 H           3.2998    4.6710   20.1544 H       1  UNL1        0.0618
      9 C           5.0987    3.6484   19.6046 C.ar    1  UNL1       -0.0611
     10 H           5.2161    3.1746   20.5690 H       1  UNL1        0.0618
     11 C           6.0305    3.4152   18.6102 C.ar    1  UNL1       -0.0535
     12 H           6.8686    2.7598   18.8065 H       1  UNL1        0.0624
     13 C           8.5204    4.7723   16.7021 C.ar    1  UNL1       -0.0147
     14 C           8.5988    5.1941   18.0250 C.ar    1  UNL1       -0.0535
     15 H           7.7989    4.9823   18.7178 H       1  UNL1        0.0624
     16 C           9.6920    5.9222   18.4612 C.ar    1  UNL1       -0.0611
     17 H           9.7355    6.2511   19.4898 H       1  UNL1        0.0618
     18 C          10.7196    6.2402   17.5896 C.ar    1  UNL1       -0.0617
     19 H          11.5647    6.8178   17.9341 H       1  UNL1        0.0618
     20 C          10.6508    5.8241   16.2708 C.ar    1  UNL1       -0.0611
     21 H          11.4370    6.0779   15.5751 H       1  UNL1        0.0618
     22 C           9.5591    5.0976   15.8339 C.ar    1  UNL1       -0.0535
     23 H           9.4944    4.8033   14.7968 H       1  UNL1        0.0624
     24 C           7.7371    2.1199   16.3974 C.ar    1  UNL1       -0.0147
     25 C           9.0785    1.8013   16.2091 C.ar    1  UNL1       -0.0535
     26 H           9.7729    2.5671   15.8934 H       1  UNL1        0.0624
     27 C           9.5298    0.5121   16.4285 C.ar    1  UNL1       -0.0611
     28 H          10.5734    0.2773   16.2772 H       1  UNL1        0.0618
     29 C           8.6514   -0.4735   16.8468 C.ar    1  UNL1       -0.0617
     30 H           9.0069   -1.4769   17.0290 H       1  UNL1        0.0618
     31 C           7.3129   -0.1671   17.0294 C.ar    1  UNL1       -0.0611
     32 H           6.6227   -0.9329   17.3556 H       1  UNL1        0.0618
     33 C           6.8555    1.1168   16.7908 C.ar    1  UNL1       -0.0535
     34 H           5.8069    1.3532   16.9221 H       1  UNL1        0.0624
@<TRIPOS>BOND
     1    23    22    1
     2    21    20    1
     3    22    20   ar
     4    22    13   ar
     5    26    25    1
     6     1    24    1
     7     1    13    1
     8     1     4    1
     9     3     2    1
    10    25    24   ar
    11    25    27   ar
    12    20    18   ar
    13    28    27    1
    14    24    33   ar
    15    27    29   ar
    16    13    14   ar
    17    33    34    1
    18    33    31   ar
    19    29    30    1
    20    29    31   ar
    21    31    32    1
    22     2     4   ar
    23     2     5   ar
    24     4    11   ar
    25    18    19    1
    26    18    16   ar
    27     6     5    1
    28    14    16   ar
    29    14    15    1
    30     5     7   ar
    31    16    17    1
    32    11    12    1
    33    11     9   ar
    34     7     9   ar
    35     7     8    1
    36     9    10    1
