@<TRIPOS>MOLECULE
1
 13 12 0 0 0
SMALL
GASTEIGER

@<TRIPOS>ATOM
      1 P           0.0905    2.8444   16.6732 P.3     1  UNL1       -0.1154
      2 C          -0.6444    3.5996   18.1804 C.3     1  UNL1       -0.0447
      3 H           0.0410    4.2968   18.6533 H       1  UNL1        0.0277
      4 H          -0.9204    2.8235   18.8944 H       1  UNL1        0.0277
      5 H          -1.5310    4.1440   17.8597 H       1  UNL1        0.0277
      6 C           1.2986    1.6732   17.4279 C.3     1  UNL1       -0.0447
      7 H           1.6562    1.0097   16.6423 H       1  UNL1        0.0277
      8 H           0.8362    1.0821   18.2181 H       1  UNL1        0.0277
      9 H           2.1499    2.2201   17.8276 H       1  UNL1        0.0277
     10 C          -1.2713    1.6626   16.3574 C.3     1  UNL1       -0.0447
     11 H          -2.1366    2.2265   16.0170 H       1  UNL1        0.0277
     12 H          -1.5143    1.1399   17.2831 H       1  UNL1        0.0277
     13 H          -0.9857    0.9438   15.5931 H       1  UNL1        0.0277
@<TRIPOS>BOND
     1    13    10    1
     2    11    10    1
     3    10     1    1
     4    10    12    1
     5     7     6    1
     6     1     6    1
     7     1     2    1
     8     6     9    1
     9     6     8    1
    10     5     2    1
    11     2     3    1
    12     2     4    1
