@<TRIPOS>MOLECULE
1
 13 12 0 0 0
SMALL
GASTEIGER

@<TRIPOS>ATOM
      1 P           0.6049    5.2846   13.3183 P.3     1  UNL1       -0.1154
      2 C           0.1873    7.0716   13.4562 C.3     1  UNL1       -0.0447
      3 H          -0.8224    7.1220   13.8613 H       1  UNL1        0.0277
      4 H           0.2179    7.5436   12.4740 H       1  UNL1        0.0277
      5 H           0.8596    7.5956   14.1286 H       1  UNL1        0.0277
      6 C          -0.6663    4.8926   12.0610 C.3     1  UNL1       -0.0447
      7 H          -0.4607    3.9353   11.5890 H       1  UNL1        0.0277
      8 H          -0.6683    5.6801   11.3065 H       1  UNL1        0.0277
      9 H          -1.6348    4.8556   12.5541 H       1  UNL1        0.0277
     10 C           2.0714    5.3424   12.2021 C.3     1  UNL1       -0.0447
     11 H           2.9305    5.7473   12.7342 H       1  UNL1        0.0277
     12 H           1.8698    5.9459   11.3173 H       1  UNL1        0.0277
     13 H           2.2992    4.3205   11.8989 H       1  UNL1        0.0277
@<TRIPOS>BOND
     1     8     6    1
     2    12    10    1
     3     7     6    1
     4    13    10    1
     5     6     9    1
     6     6     1    1
     7    10    11    1
     8    10     1    1
     9     4     2    1
    10     1     2    1
    11     2     3    1
    12     2     5    1
