@<TRIPOS>MOLECULE
1
 13 12 0 0 0
SMALL
GASTEIGER

@<TRIPOS>ATOM
      1 P           1.7305    5.6603   16.3742 P.3     1  UNL1       -0.1154
      2 C           3.0926    6.6753   15.6462 C.3     1  UNL1       -0.0447
      3 H           3.9287    6.0186   15.4078 H       1  UNL1        0.0277
      4 H           3.4262    7.4289   16.3599 H       1  UNL1        0.0277
      5 H           2.7726    7.1639   14.7303 H       1  UNL1        0.0277
      6 C           2.7058    5.1275   17.8500 C.3     1  UNL1       -0.0447
      7 H           2.0770    4.6003   18.5621 H       1  UNL1        0.0277
      8 H           3.1530    5.9935   18.3386 H       1  UNL1        0.0277
      9 H           3.4984    4.4530   17.5275 H       1  UNL1        0.0277
     10 C           0.7072    6.9749   17.1397 C.3     1  UNL1       -0.0447
     11 H           0.1933    7.5251   16.3554 H       1  UNL1        0.0277
     12 H           1.3151    7.6520   17.7399 H       1  UNL1        0.0277
     13 H          -0.0534    6.5036   17.7580 H       1  UNL1        0.0277
@<TRIPOS>BOND
     1     5     2    1
     2     3     2    1
     3     2     4    1
     4     2     1    1
     5    11    10    1
     6     1    10    1
     7     1     6    1
     8    10    12    1
     9    10    13    1
    10     9     6    1
    11     6     8    1
    12     6     7    1
