@<TRIPOS>MOLECULE
1
 13 12 0 0 0
SMALL
GASTEIGER

@<TRIPOS>ATOM
      1 P           3.8931    7.3924   15.9087 P.3     1  UNL1       -0.1154
      2 C           4.0426    7.5969   17.7267 C.3     1  UNL1       -0.0447
      3 C           2.4490    8.4780   15.5892 C.3     1  UNL1       -0.0447
      4 C           5.1972    8.5696   15.3688 C.3     1  UNL1       -0.0447
      5 H           2.2554    8.5268   14.5196 H       1  UNL1        0.0277
      6 H           2.6641    9.4789   15.9610 H       1  UNL1        0.0277
      7 H           1.5638    8.0990   16.0925 H       1  UNL1        0.0277
      8 H           5.0010    7.2088   18.0637 H       1  UNL1        0.0277
      9 H           3.2475    7.0537   18.2301 H       1  UNL1        0.0277
     10 H           3.9710    8.6525   17.9853 H       1  UNL1        0.0277
     11 H           6.1889    8.1550   15.5159 H       1  UNL1        0.0277
     12 H           5.1078    9.4896   15.9452 H       1  UNL1        0.0277
     13 H           5.0587    8.7999   14.3151 H       1  UNL1        0.0277
@<TRIPOS>BOND
     1    13     4    1
     2     5     3    1
     3     4    11    1
     4     4     1    1
     5     4    12    1
     6     3     1    1
     7     3     6    1
     8     3     7    1
     9     1     2    1
    10     2    10    1
    11     2     8    1
    12     2     9    1
