@<TRIPOS>MOLECULE
1
 13 12 0 0 0
SMALL
GASTEIGER

@<TRIPOS>ATOM
      1 P           5.7773    4.6254   16.2245 P.3     1  UNL1       -0.1154
      2 C           5.7652    4.1380   18.0005 C.3     1  UNL1       -0.0447
      3 C           7.2377    5.7441   16.2915 C.3     1  UNL1       -0.0447
      4 C           6.5930    3.1485   15.5034 C.3     1  UNL1       -0.0447
      5 H           5.3759    3.1308   18.1099 H       1  UNL1        0.0277
      6 H           5.1468    4.8192   18.5801 H       1  UNL1        0.0277
      7 H           6.7822    4.1644   18.3883 H       1  UNL1        0.0277
      8 H           5.8985    2.3132   15.4703 H       1  UNL1        0.0277
      9 H           6.9127    3.3736   14.4883 H       1  UNL1        0.0277
     10 H           7.0427    6.5669   16.9756 H       1  UNL1        0.0277
     11 H           7.4635    6.1438   15.3082 H       1  UNL1        0.0277
     12 H           8.0992    5.1836   16.6526 H       1  UNL1        0.0277
     13 H           7.4578    2.8711   16.1044 H       1  UNL1        0.0277
@<TRIPOS>BOND
     1     9     4    1
     2    11     3    1
     3     8     4    1
     4     4    13    1
     5     4     1    1
     6     1     3    1
     7     1     2    1
     8     3    12    1
     9     3    10    1
    10     2     5    1
    11     2     7    1
    12     2     6    1
