@<TRIPOS>MOLECULE
1
 13 12 0 0 0
SMALL
GASTEIGER

@<TRIPOS>ATOM
      1 P           4.8095    5.6655   13.0213 P.3     1  UNL1       -0.1154
      2 C           5.0257    4.2443   11.8774 C.3     1  UNL1       -0.0447
      3 C           6.4940    6.3693   12.7659 C.3     1  UNL1       -0.0447
      4 C           3.8713    6.8798   12.0087 C.3     1  UNL1       -0.0447
      5 H           4.1381    3.6246   11.8353 H       1  UNL1        0.0277
      6 H           5.8496    3.6356   12.2459 H       1  UNL1        0.0277
      7 H           5.2726    4.6049   10.8798 H       1  UNL1        0.0277
      8 H           2.8023    6.7303   12.1252 H       1  UNL1        0.0277
      9 H           4.1466    6.7978   10.9583 H       1  UNL1        0.0277
     10 H           4.1163    7.8801   12.3610 H       1  UNL1        0.0277
     11 H           7.2468    5.6594   13.1016 H       1  UNL1        0.0277
     12 H           6.6199    7.3055   13.3012 H       1  UNL1        0.0277
     13 H           6.6369    6.5508   11.7011 H       1  UNL1        0.0277
@<TRIPOS>BOND
     1     7     2    1
     2     9     4    1
     3    13     3    1
     4     5     2    1
     5     2     6    1
     6     2     1    1
     7     4     8    1
     8     4    10    1
     9     4     1    1
    10     3     1    1
    11     3    11    1
    12     3    12    1
