@<TRIPOS>MOLECULE
1
 13 12 0 0 0
SMALL
GASTEIGER

@<TRIPOS>ATOM
      1 P           7.7473    2.2737    6.7165 P.3     1  UNL1       -0.1154
      2 C           6.7725    0.7206    6.6945 C.3     1  UNL1       -0.0447
      3 C           9.3853    1.5763    7.1609 C.3     1  UNL1       -0.0447
      4 C           7.1631    2.9510    8.3182 C.3     1  UNL1       -0.0447
      5 H           9.2954    0.9630    8.0579 H       1  UNL1        0.0277
      6 H          10.1171    2.3627    7.3311 H       1  UNL1        0.0277
      7 H           9.7174    0.9613    6.3249 H       1  UNL1        0.0277
      8 H           6.9668    0.1431    7.5987 H       1  UNL1        0.0277
      9 H           7.2344    2.1793    9.0850 H       1  UNL1        0.0277
     10 H           7.7479    3.8164    8.6223 H       1  UNL1        0.0277
     11 H           6.1216    3.2506    8.2001 H       1  UNL1        0.0277
     12 H           5.7125    0.9672    6.6369 H       1  UNL1        0.0277
     13 H           7.0545    0.1459    5.8125 H       1  UNL1        0.0277
@<TRIPOS>BOND
     1    13     2    1
     2     7     3    1
     3    12     2    1
     4     2     1    1
     5     2     8    1
     6     1     3    1
     7     1     4    1
     8     3     6    1
     9     3     5    1
    10    11     4    1
    11     4    10    1
    12     4     9    1
