@<TRIPOS>MOLECULE
1
 13 12 0 0 0
SMALL
GASTEIGER

@<TRIPOS>ATOM
      1 P           2.4562    3.0124    7.0285 P.3     1  UNL1       -0.1154
      2 C           3.3453    4.4129    6.2086 C.3     1  UNL1       -0.0447
      3 C           3.5084    2.8060    8.5279 C.3     1  UNL1       -0.0447
      4 C           3.1048    1.6746    5.9483 C.3     1  UNL1       -0.0447
      5 H           4.4208    4.2796    6.3267 H       1  UNL1        0.0277
      6 H           3.0535    5.3736    6.6307 H       1  UNL1        0.0277
      7 H           3.0976    4.4172    5.1473 H       1  UNL1        0.0277
      8 H           3.5082    3.7300    9.1043 H       1  UNL1        0.0277
      9 H           4.5313    2.5570    8.2445 H       1  UNL1        0.0277
     10 H           3.0948    2.0135    9.1492 H       1  UNL1        0.0277
     11 H           4.1861    1.7554    5.8301 H       1  UNL1        0.0277
     12 H           2.6236    1.7628    4.9733 H       1  UNL1        0.0277
     13 H           2.8449    0.7084    6.3732 H       1  UNL1        0.0277
@<TRIPOS>BOND
     1    12     4    1
     2     7     2    1
     3    11     4    1
     4     4    13    1
     5     4     1    1
     6     2     5    1
     7     2     6    1
     8     2     1    1
     9     1     3    1
    10     9     3    1
    11     3     8    1
    12     3    10    1
