@<TRIPOS>MOLECULE
1
 13 12 0 0 0
SMALL
GASTEIGER

@<TRIPOS>ATOM
      1 P           0.0000    5.3922    7.9969 P.3     1  UNL1       -0.1154
      2 C           1.3735    5.8826    9.1303 C.3     1  UNL1       -0.0447
      3 C           0.0000    6.8769    6.9035 C.3     1  UNL1       -0.0447
      4 H           1.4058    5.1731    9.9571 H       1  UNL1        0.0277
      5 H           1.2071    6.8884    9.5186 H       1  UNL1        0.0277
      6 H           2.3295    5.8604    8.6093 H       1  UNL1        0.0277
      7 H          -0.0001    7.7888    7.5002 H       1  UNL1        0.0277
      8 H          -0.8788    6.8617    6.2600 H       1  UNL1        0.0277
      9 C          -1.3736    5.8827    9.1302 C.3     1  UNL1       -0.0447
     10 H           0.8790    6.8618    6.2603 H       1  UNL1        0.0277
     11 H          -1.4063    5.1729    9.9567 H       1  UNL1        0.0277
     12 H          -1.2070    6.8882    9.5189 H       1  UNL1        0.0277
     13 H          -2.3295    5.8609    8.6089 H       1  UNL1        0.0277
@<TRIPOS>BOND
     1     8     3    1
     2    10     3    1
     3     3     7    1
     4     3     1    1
     5     1     9    1
     6     1     2    1
     7    13     9    1
     8     6     2    1
     9     9    12    1
    10     9    11    1
    11     2     5    1
    12     2     4    1
