@<TRIPOS>MOLECULE
1
 25 24 0 0 0
SMALL
GASTEIGER

@<TRIPOS>ATOM
      1 P           3.7242    1.7043    2.9607 P.3     1  UNL1       -0.1038
      2 C           2.5335    1.2314    4.3223 C.3     1  UNL1       -0.0261
      3 H           1.8083    0.5294    3.8957 H       1  UNL1        0.0343
      4 C           3.2736    0.5384    5.4598 C.3     1  UNL1       -0.0587
      5 H           2.5987    0.3639    6.2964 H       1  UNL1        0.0236
      6 H           4.0878    1.1743    5.8060 H       1  UNL1        0.0236
      7 H           3.6785   -0.4216    5.1465 H       1  UNL1        0.0236
      8 C           1.8178    2.4738    4.8383 C.3     1  UNL1       -0.0587
      9 H           1.1351    2.2119    5.6454 H       1  UNL1        0.0236
     10 H           1.2499    2.9613    4.0498 H       1  UNL1        0.0236
     11 H           2.5514    3.1853    5.2142 H       1  UNL1        0.0236
     12 C           2.5531    2.2597    1.6001 C.3     1  UNL1       -0.0261
     13 H           2.3407    3.3050    1.8524 H       1  UNL1        0.0343
     14 C           1.2389    1.4895    1.4869 C.3     1  UNL1       -0.0587
     15 H           0.6882    1.8622    0.6242 H       1  UNL1        0.0236
     16 H           0.6074    1.6186    2.3607 H       1  UNL1        0.0236
     17 H           1.4117    0.4266    1.3317 H       1  UNL1        0.0236
     18 C           3.2713    2.2349    0.2525 C.3     1  UNL1       -0.0587
     19 H           2.7114    2.8132   -0.4800 H       1  UNL1        0.0236
     20 H           3.3658    1.2174   -0.1208 H       1  UNL1        0.0236
     21 H           4.2629    2.6753    0.3438 H       1  UNL1        0.0236
     22 C           4.1754    0.0293    2.3471 C.3     1  UNL1       -0.0438
     23 H           3.2816   -0.5508    2.1214 H       1  UNL1        0.0278
     24 H           4.7576   -0.4896    3.1037 H       1  UNL1        0.0278
     25 H           4.7798    0.1395    1.4496 H       1  UNL1        0.0278
@<TRIPOS>BOND
     1    19    18    1
     2    20    18    1
     3    18    21    1
     4    18    12    1
     5    15    14    1
     6    17    14    1
     7    25    22    1
     8    14    12    1
     9    14    16    1
    10    12    13    1
    11    12     1    1
    12    23    22    1
    13    22     1    1
    14    22    24    1
    15     1     2    1
    16     3     2    1
    17    10     8    1
    18     2     8    1
    19     2     4    1
    20     8    11    1
    21     8     9    1
    22     7     4    1
    23     4     6    1
    24     4     5    1
