@<TRIPOS>MOLECULE
1
 20 20 0 0 0
SMALL
GASTEIGER

@<TRIPOS>ATOM
      1 P           5.8874    2.9953    1.7894 P.3     1  UNL1       -0.0810
      2 C           6.2131    1.6968    0.5504 C.ar    1  UNL1       -0.0239
      3 C           5.5667    1.6234   -0.6770 C.ar    1  UNL1       -0.0542
      4 C           5.8939    0.6242   -1.5792 C.ar    1  UNL1       -0.0612
      5 C           6.8672   -0.3076   -1.2654 C.ar    1  UNL1       -0.0617
      6 C           7.5206   -0.2370   -0.0442 C.ar    1  UNL1       -0.0612
      7 C           7.1997    0.7617    0.8542 C.ar    1  UNL1       -0.0542
      8 C           5.3654    1.9902    3.2221 C.3     1  UNL1       -0.0405
      9 C           4.2812    3.6924    1.2583 C.3     1  UNL1       -0.0405
     10 H           4.8056    2.3423   -0.9406 H       1  UNL1        0.0624
     11 H           5.3860    0.5767   -2.5317 H       1  UNL1        0.0618
     12 H           7.1199   -1.0846   -1.9713 H       1  UNL1        0.0618
     13 H           8.2840   -0.9594    0.2032 H       1  UNL1        0.0618
     14 H           7.7218    0.8358    1.7990 H       1  UNL1        0.0624
     15 H           4.5708    1.3099    2.9146 H       1  UNL1        0.0280
     16 H           5.0085    2.6591    4.0047 H       1  UNL1        0.0280
     17 H           6.2139    1.4260    3.6057 H       1  UNL1        0.0280
     18 H           3.5807    2.8746    1.0889 H       1  UNL1        0.0280
     19 H           4.3939    4.2812    0.3508 H       1  UNL1        0.0280
     20 H           3.9133    4.3349    2.0561 H       1  UNL1        0.0280
@<TRIPOS>BOND
     1    11     4    1
     2    12     5    1
     3     4     5   ar
     4     4     3   ar
     5     5     6   ar
     6    10     3    1
     7     3     2   ar
     8     6    13    1
     9     6     7   ar
    10    19     9    1
    11     2     7   ar
    12     2     1    1
    13     7    14    1
    14    18     9    1
    15     9     1    1
    16     9    20    1
    17     1     8    1
    18    15     8    1
    19     8    17    1
    20     8    16    1
