@<TRIPOS>MOLECULE
1
 19 18 0 0 0
SMALL
GASTEIGER

@<TRIPOS>ATOM
      1 P           3.5290    6.5821    2.8903 P.3     1  UNL1       -0.1096
      2 C           4.0360    7.5187    4.3889 C.3     1  UNL1       -0.0443
      3 H           3.1723    7.6941    5.0299 H       1  UNL1        0.0277
      4 H           4.4492    8.4724    4.0645 H       1  UNL1        0.0277
      5 H           4.7942    6.9720    4.9441 H       1  UNL1        0.0277
      6 C           2.1387    7.6553    2.3585 C.3     1  UNL1       -0.0443
      7 H           1.3757    7.7130    3.1348 H       1  UNL1        0.0277
      8 H           1.7152    7.2611    1.4381 H       1  UNL1        0.0277
      9 H           2.5378    8.6479    2.1554 H       1  UNL1        0.0277
     10 C           2.5804    5.1765    3.6662 C.3     1  UNL1       -0.0266
     11 H           1.9365    5.6173    4.4389 H       1  UNL1        0.0343
     12 C           3.5402    4.1862    4.3101 C.3     1  UNL1       -0.0587
     13 H           2.9932    3.3510    4.7442 H       1  UNL1        0.0236
     14 H           4.1249    4.6580    5.0974 H       1  UNL1        0.0236
     15 H           4.2162    3.7958    3.5505 H       1  UNL1        0.0236
     16 C           1.7205    4.4871    2.6143 C.3     1  UNL1       -0.0587
     17 H           1.2593    3.5932    3.0308 H       1  UNL1        0.0236
     18 H           2.3402    4.1957    1.7662 H       1  UNL1        0.0236
     19 H           0.9307    5.1442    2.2588 H       1  UNL1        0.0236
@<TRIPOS>BOND
     1     8     6    1
     2    18    16    1
     3     9     6    1
     4    19    16    1
     5     6     1    1
     6     6     7    1
     7    16    17    1
     8    16    10    1
     9     1    10    1
    10     1     2    1
    11    15    12    1
    12    10    12    1
    13    10    11    1
    14     4     2    1
    15    12    13    1
    16    12    14    1
    17     2     5    1
    18     2     3    1
