@<TRIPOS>MOLECULE
1
 31 30 0 0 0
SMALL
GASTEIGER

@<TRIPOS>ATOM
      1 P           3.0125   -0.4580    2.0809 P.3     1  UNL1       -0.0980
      2 C           1.3323   -0.1914    1.2925 C.3     1  UNL1       -0.0257
      3 C           0.2581   -0.8757    2.1293 C.3     1  UNL1       -0.0587
      4 C           1.0058    1.2916    1.1450 C.3     1  UNL1       -0.0587
      5 C           4.0800    0.5091    0.8667 C.3     1  UNL1       -0.0257
      6 C           3.9392    0.1340   -0.6085 C.3     1  UNL1       -0.0587
      7 C           5.5638    0.5749    1.2215 C.3     1  UNL1       -0.0587
      8 C           3.2911   -2.2937    1.7722 C.3     1  UNL1       -0.0257
      9 C           4.7824   -2.6091    1.8548 C.3     1  UNL1       -0.0587
     10 C           2.6846   -2.9222    0.5192 C.3     1  UNL1       -0.0587
     11 H           1.3548   -0.6553    0.3018 H       1  UNL1        0.0344
     12 H          -0.7145   -0.7811    1.6480 H       1  UNL1        0.0236
     13 H           0.2034   -0.3985    3.1058 H       1  UNL1        0.0236
     14 H           0.4709   -1.9333    2.2675 H       1  UNL1        0.0236
     15 H          -0.0468    1.4119    0.8932 H       1  UNL1        0.0236
     16 H           1.5924    1.7602    0.3595 H       1  UNL1        0.0236
     17 H           1.1943    1.8117    2.0841 H       1  UNL1        0.0236
     18 H           3.6760    1.5189    1.0169 H       1  UNL1        0.0344
     19 H           4.4329    0.8948   -1.2123 H       1  UNL1        0.0236
     20 H           2.9039    0.0775   -0.9305 H       1  UNL1        0.0236
     21 H           4.4277   -0.8143   -0.8171 H       1  UNL1        0.0236
     22 H           6.0252    1.3999    0.6806 H       1  UNL1        0.0236
     23 H           6.0848   -0.3357    0.9423 H       1  UNL1        0.0236
     24 H           5.7013    0.7465    2.2857 H       1  UNL1        0.0236
     25 H           2.8013   -2.7507    2.6417 H       1  UNL1        0.0344
     26 H           4.9388   -3.6636    2.0796 H       1  UNL1        0.0236
     27 H           5.2523   -2.0119    2.6343 H       1  UNL1        0.0236
     28 H           5.2704   -2.3953    0.9076 H       1  UNL1        0.0236
     29 H           2.9617   -3.9765    0.4930 H       1  UNL1        0.0236
     30 H           3.0583   -2.4584   -0.3877 H       1  UNL1        0.0236
     31 H           1.5995   -2.8677    0.5173 H       1  UNL1        0.0236
@<TRIPOS>BOND
     1    19     6    1
     2    20     6    1
     3    21     6    1
     4     6     5    1
     5    30    10    1
     6    11     2    1
     7    16     4    1
     8    29    10    1
     9    31    10    1
    10    10     8    1
    11    22     7    1
    12     5    18    1
    13     5     7    1
    14     5     1    1
    15    15     4    1
    16    28     9    1
    17    23     7    1
    18     4     2    1
    19     4    17    1
    20     7    24    1
    21     2     1    1
    22     2     3    1
    23    12     3    1
    24     8     9    1
    25     8     1    1
    26     8    25    1
    27     9    26    1
    28     9    27    1
    29     3    14    1
    30     3    13    1
