@<TRIPOS>MOLECULE
1
 19 18 0 0 0
SMALL
GASTEIGER

@<TRIPOS>ATOM
      1 P          -0.5431    1.2998   11.3452 P.3     1  UNL1       -0.1096
      2 C           0.6774    0.1401   12.0508 C.3     1  UNL1       -0.0443
      3 H           0.4457   -0.8739   11.7270 H       1  UNL1        0.0277
      4 H           0.6291    0.2002   13.1364 H       1  UNL1        0.0277
      5 H           1.6788    0.4207   11.7283 H       1  UNL1        0.0277
      6 C          -2.0874    0.7111   12.1326 C.3     1  UNL1       -0.0443
      7 H          -2.1121   -0.3771   12.1174 H       1  UNL1        0.0277
      8 H          -2.9523    1.1085   11.6059 H       1  UNL1        0.0277
      9 H          -2.0937    1.0574   13.1644 H       1  UNL1        0.0277
     10 C          -0.6975    0.7108    9.5813 C.3     1  UNL1       -0.0266
     11 H          -1.2773    1.4902    9.0714 H       1  UNL1        0.0343
     12 C           0.6946    0.6581    8.9577 C.3     1  UNL1       -0.0587
     13 H           0.6217    0.5844    7.8745 H       1  UNL1        0.0236
     14 H           1.2456   -0.2054    9.3211 H       1  UNL1        0.0236
     15 H           1.2572    1.5586    9.2057 H       1  UNL1        0.0236
     16 C          -1.4191   -0.6220    9.4142 C.3     1  UNL1       -0.0587
     17 H          -1.3930   -0.9147    8.3658 H       1  UNL1        0.0236
     18 H          -2.4611   -0.5565    9.7172 H       1  UNL1        0.0236
     19 H          -0.9350   -1.4084    9.9890 H       1  UNL1        0.0236
@<TRIPOS>BOND
     1    13    12    1
     2    17    16    1
     3    12    15    1
     4    12    14    1
     5    12    10    1
     6    11    10    1
     7    16    10    1
     8    16    18    1
     9    16    19    1
    10    10     1    1
    11     1     2    1
    12     1     6    1
    13     8     6    1
    14     3     2    1
    15     5     2    1
    16     2     4    1
    17     7     6    1
    18     6     9    1
