@<TRIPOS>MOLECULE
1
 25 24 0 0 0
SMALL
GASTEIGER

@<TRIPOS>ATOM
      1 P           7.8934    4.6388    6.0531 P.3     1  UNL1       -0.1038
      2 C           7.6754    2.8294    5.9047 C.3     1  UNL1       -0.0438
      3 C           6.8308    5.0565    7.5365 C.3     1  UNL1       -0.0261
      4 C           7.2498    4.3748    8.8369 C.3     1  UNL1       -0.0587
      5 C           5.3705    4.7321    7.2287 C.3     1  UNL1       -0.0587
      6 C           9.6165    4.7149    6.7580 C.3     1  UNL1       -0.0261
      7 C          10.6366    4.2097    5.7444 C.3     1  UNL1       -0.0587
      8 C           9.9677    6.1258    7.2125 C.3     1  UNL1       -0.0587
      9 H           8.1335    2.3283    6.7564 H       1  UNL1        0.0278
     10 H           8.1427    2.4907    4.9809 H       1  UNL1        0.0278
     11 H           6.6142    2.5979    5.8513 H       1  UNL1        0.0278
     12 H           6.9332    6.1400    7.6605 H       1  UNL1        0.0343
     13 H           6.5172    4.6104    9.6081 H       1  UNL1        0.0236
     14 H           8.2202    4.7153    9.1873 H       1  UNL1        0.0236
     15 H           7.2745    3.2940    8.7223 H       1  UNL1        0.0236
     16 H           4.7080    5.2763    7.9005 H       1  UNL1        0.0236
     17 H           5.1801    3.6695    7.3600 H       1  UNL1        0.0236
     18 H           5.1217    4.9916    6.2029 H       1  UNL1        0.0236
     19 H           9.6227    4.0380    7.6203 H       1  UNL1        0.0343
     20 H          11.6264    4.1862    6.1969 H       1  UNL1        0.0236
     21 H          10.6729    4.8681    4.8791 H       1  UNL1        0.0236
     22 H          10.3932    3.2079    5.4009 H       1  UNL1        0.0236
     23 H          10.9877    6.1554    7.5911 H       1  UNL1        0.0236
     24 H           9.3008    6.4729    7.9991 H       1  UNL1        0.0236
     25 H           9.8991    6.8086    6.3667 H       1  UNL1        0.0236
@<TRIPOS>BOND
     1    21     7    1
     2    10     2    1
     3    22     7    1
     4     7    20    1
     5     7     6    1
     6    11     2    1
     7     2     1    1
     8     2     9    1
     9     1     6    1
    10     1     3    1
    11    18     5    1
    12    25     8    1
    13     6     8    1
    14     6    19    1
    15     8    23    1
    16     8    24    1
    17     5    17    1
    18     5     3    1
    19     5    16    1
    20     3    12    1
    21     3     4    1
    22    15     4    1
    23     4    14    1
    24     4    13    1
