@<TRIPOS>MOLECULE
1
 31 30 0 0 0
SMALL
GASTEIGER

@<TRIPOS>ATOM
      1 P           2.5075    6.7431    0.8466 P.3     1  UNL1       -0.0980
      2 C           1.0888    7.6920    1.6457 C.3     1  UNL1       -0.0257
      3 C           1.4736    8.4915    2.8884 C.3     1  UNL1       -0.0587
      4 C          -0.1850    6.8998    1.9395 C.3     1  UNL1       -0.0587
      5 C           2.8516    5.2100    1.8889 C.3     1  UNL1       -0.0257
      6 C           1.8524    4.0556    1.8459 C.3     1  UNL1       -0.0587
      7 C           3.1299    5.6123    3.3349 C.3     1  UNL1       -0.0587
      8 C           1.5881    5.9995   -0.6111 C.3     1  UNL1       -0.0257
      9 C           2.5760    5.2132   -1.4639 C.3     1  UNL1       -0.0587
     10 C           0.9087    7.0729   -1.4560 C.3     1  UNL1       -0.0587
     11 H           0.8820    8.4263    0.8538 H       1  UNL1        0.0344
     12 H           0.7228    9.2593    3.0676 H       1  UNL1        0.0236
     13 H           1.5252    7.8608    3.7712 H       1  UNL1        0.0236
     14 H           2.4317    8.9835    2.7471 H       1  UNL1        0.0236
     15 H          -0.9848    7.5981    2.1848 H       1  UNL1        0.0236
     16 H          -0.5142    6.3027    1.0944 H       1  UNL1        0.0236
     17 H          -0.0461    6.2487    2.7991 H       1  UNL1        0.0236
     18 H           3.7940    4.8478    1.4567 H       1  UNL1        0.0344
     19 H           2.1968    3.2732    2.5232 H       1  UNL1        0.0236
     20 H           0.8641    4.3648    2.1707 H       1  UNL1        0.0236
     21 H           1.7733    3.6190    0.8539 H       1  UNL1        0.0236
     22 H           3.6947    4.8328    3.8464 H       1  UNL1        0.0236
     23 H           3.7039    6.5370    3.3675 H       1  UNL1        0.0236
     24 H           2.1993    5.7586    3.8772 H       1  UNL1        0.0236
     25 H           0.8300    5.3125   -0.2231 H       1  UNL1        0.0344
     26 H           2.0709    4.7550   -2.3139 H       1  UNL1        0.0236
     27 H           3.3391    5.8910   -1.8428 H       1  UNL1        0.0236
     28 H           3.0578    4.4254   -0.8875 H       1  UNL1        0.0236
     29 H           0.6150    6.6545   -2.4180 H       1  UNL1        0.0236
     30 H           0.0166    7.4632   -0.9737 H       1  UNL1        0.0236
     31 H           1.5969    7.8991   -1.6353 H       1  UNL1        0.0236
@<TRIPOS>BOND
     1    29    10    1
     2    26     9    1
     3    27     9    1
     4    31    10    1
     5     9    28    1
     6     9     8    1
     7    10    30    1
     8    10     8    1
     9     8    25    1
    10     8     1    1
    11     1     2    1
    12     1     5    1
    13    11     2    1
    14    21     6    1
    15    16     4    1
    16    18     5    1
    17     2     4    1
    18     2     3    1
    19     6     5    1
    20     6    20    1
    21     6    19    1
    22     5     7    1
    23     4    15    1
    24     4    17    1
    25    14     3    1
    26     3    12    1
    27     3    13    1
    28     7    23    1
    29     7    22    1
    30     7    24    1
