@<TRIPOS>MOLECULE
1
 24 25 0 0 0
SMALL
GASTEIGER

@<TRIPOS>ATOM
      1 P           3.3172    6.9559    6.5897 P.3     1  UNL1       -0.0588
      2 H           2.5677    8.1453    6.7011 H       1  UNL1        0.0671
      3 C           4.2722    7.1892    8.1320 C.ar    1  UNL1       -0.0220
      4 C           4.4993    8.4519    8.6673 C.ar    1  UNL1       -0.0541
      5 H           4.0778    9.3220    8.1801 H       1  UNL1        0.0624
      6 C           5.2570    8.5904    9.8156 C.ar    1  UNL1       -0.0612
      7 H           5.4285    9.5717   10.2338 H       1  UNL1        0.0618
      8 C           5.7972    7.4719   10.4302 C.ar    1  UNL1       -0.0617
      9 H           6.3884    7.5836   11.3272 H       1  UNL1        0.0618
     10 C           5.5792    6.2121    9.8963 C.ar    1  UNL1       -0.0612
     11 H           6.0026    5.3413   10.3760 H       1  UNL1        0.0618
     12 C           4.8171    6.0717    8.7506 C.ar    1  UNL1       -0.0541
     13 H           4.6205    5.0998    8.3188 H       1  UNL1        0.0624
     14 C           4.5546    7.6567    5.4572 C.ar    1  UNL1       -0.0220
     15 C           5.8111    7.0616    5.4002 C.ar    1  UNL1       -0.0541
     16 H           6.0188    6.2114    6.0352 H       1  UNL1        0.0624
     17 C           6.7758    7.5534    4.5424 C.ar    1  UNL1       -0.0612
     18 H           7.7509    7.0908    4.5024 H       1  UNL1        0.0618
     19 C           6.4909    8.6398    3.7296 C.ar    1  UNL1       -0.0617
     20 H           7.2438    9.0231    3.0568 H       1  UNL1        0.0618
     21 C           5.2410    9.2341    3.7795 C.ar    1  UNL1       -0.0612
     22 H           5.0196   10.0807    3.1457 H       1  UNL1        0.0618
     23 C           4.2750    8.7462    4.6415 C.ar    1  UNL1       -0.0541
     24 H           3.2976    9.2077    4.6805 H       1  UNL1        0.0624
@<TRIPOS>BOND
     1    20    19    1
     2    22    21    1
     3    19    21   ar
     4    19    17   ar
     5    21    23   ar
     6    18    17    1
     7    17    15   ar
     8    23    24    1
     9    23    14   ar
    10    15    14   ar
    11    15    16    1
    12    14     1    1
    13     1     2    1
    14     1     3    1
    15     3     4   ar
    16     3    12   ar
    17     5     4    1
    18    13    12    1
    19     4     6   ar
    20    12    10   ar
    21     6     7    1
    22     6     8   ar
    23    10    11    1
    24    10     8   ar
    25     8     9    1
