@<TRIPOS>MOLECULE
1
 24 25 0 0 0
SMALL
GASTEIGER

@<TRIPOS>ATOM
      1 P           1.8119    1.3632   10.7901 P.3     1  UNL1       -0.0588
      2 H           2.9161    1.3346    9.9139 H       1  UNL1        0.0671
      3 C           2.1922    3.0182   11.4512 C.ar    1  UNL1       -0.0220
      4 C           2.9431    3.9500   10.7450 C.ar    1  UNL1       -0.0541
      5 H           3.3524    3.6871    9.7793 H       1  UNL1        0.0624
      6 C           3.1673    5.2084   11.2752 C.ar    1  UNL1       -0.0612
      7 H           3.7541    5.9276   10.7228 H       1  UNL1        0.0618
      8 C           2.6450    5.5457   12.5127 C.ar    1  UNL1       -0.0617
      9 H           2.8247    6.5272   12.9250 H       1  UNL1        0.0618
     10 C           1.8929    4.6226   13.2231 C.ar    1  UNL1       -0.0612
     11 H           1.4867    4.8840   14.1889 H       1  UNL1        0.0618
     12 C           1.6625    3.3665   12.6927 C.ar    1  UNL1       -0.0541
     13 H           1.0756    2.6375   13.2358 H       1  UNL1        0.0624
     14 C           2.6127    0.4061   12.1286 C.ar    1  UNL1       -0.0220
     15 C           3.9936    0.3983   12.2896 C.ar    1  UNL1       -0.0541
     16 H           4.6151    0.9503   11.5959 H       1  UNL1        0.0624
     17 C           4.5655   -0.3123   13.3285 C.ar    1  UNL1       -0.0612
     18 H           5.6391   -0.3210   13.4496 H       1  UNL1        0.0618
     19 C           3.7626   -1.0132   14.2146 C.ar    1  UNL1       -0.0617
     20 H           4.2125   -1.5678   15.0250 H       1  UNL1        0.0618
     21 C           2.3857   -1.0036   14.0614 C.ar    1  UNL1       -0.0612
     22 H           1.7612   -1.5497   14.7537 H       1  UNL1        0.0618
     23 C           1.8128   -0.2962   13.0198 C.ar    1  UNL1       -0.0541
     24 H           0.7419   -0.2816   12.8710 H       1  UNL1        0.0624
@<TRIPOS>BOND
     1     5     4    1
     2     2     1    1
     3     7     6    1
     4     4     6   ar
     5     4     3   ar
     6     1     3    1
     7     1    14    1
     8     6     8   ar
     9     3    12   ar
    10    16    15    1
    11    14    15   ar
    12    14    23   ar
    13    15    17   ar
    14     8     9    1
    15     8    10   ar
    16    12    10   ar
    17    12    13    1
    18    24    23    1
    19    23    21   ar
    20    10    11    1
    21    17    18    1
    22    17    19   ar
    23    21    19   ar
    24    21    22    1
    25    19    20    1
