@<TRIPOS>MOLECULE
1
 24 25 0 0 0
SMALL
GASTEIGER

@<TRIPOS>ATOM
      1 P           0.4537    1.3781    4.2158 P.3     1  UNL1       -0.0588
      2 H           0.7998    2.2442    3.1648 H       1  UNL1        0.0671
      3 C          -1.2009    0.9853    3.5713 C.ar    1  UNL1       -0.0220
      4 C          -2.1413    0.4637    4.4551 C.ar    1  UNL1       -0.0541
      5 H          -1.8592    0.3077    5.4876 H       1  UNL1        0.0624
      6 C          -3.4103    0.1460    4.0124 C.ar    1  UNL1       -0.0612
      7 H          -4.1383   -0.2580    4.7003 H       1  UNL1        0.0618
      8 C          -3.7477    0.3397    2.6814 C.ar    1  UNL1       -0.0617
      9 H          -4.7373    0.0841    2.3326 H       1  UNL1        0.0618
     10 C          -2.8182    0.8628    1.7987 C.ar    1  UNL1       -0.0612
     11 H          -3.0836    1.0173    0.7627 H       1  UNL1        0.0618
     12 C          -1.5487    1.1909    2.2420 C.ar    1  UNL1       -0.0541
     13 H          -0.8223    1.6056    1.5546 H       1  UNL1        0.0624
     14 C          -0.0915    2.6766    5.3815 C.ar    1  UNL1       -0.0220
     15 C          -0.5459    3.9108    4.9309 C.ar    1  UNL1       -0.0541
     16 H          -0.5503    4.1240    3.8695 H       1  UNL1        0.0624
     17 C          -0.9856    4.8586    5.8363 C.ar    1  UNL1       -0.0612
     18 H          -1.3324    5.8198    5.4854 H       1  UNL1        0.0618
     19 C          -0.9822    4.5769    7.1933 C.ar    1  UNL1       -0.0617
     20 H          -1.3255    5.3198    7.8982 H       1  UNL1        0.0618
     21 C          -0.5387    3.3449    7.6459 C.ar    1  UNL1       -0.0612
     22 H          -0.5382    3.1258    8.7040 H       1  UNL1        0.0618
     23 C          -0.0933    2.3978    6.7415 C.ar    1  UNL1       -0.0541
     24 H           0.2709    1.4340    7.0702 H       1  UNL1        0.0624
@<TRIPOS>BOND
     1    11    10    1
     2    13    12    1
     3    10    12   ar
     4    10     8   ar
     5    12     3   ar
     6     9     8    1
     7     8     6   ar
     8     2     1    1
     9     3     1    1
    10     3     4   ar
    11    16    15    1
    12     6     4   ar
    13     6     7    1
    14     1    14    1
    15     4     5    1
    16    15    14   ar
    17    15    17   ar
    18    14    23   ar
    19    18    17    1
    20    17    19   ar
    21    23    24    1
    22    23    21   ar
    23    19    21   ar
    24    19    20    1
    25    21    22    1
