@<TRIPOS>MOLECULE
1
 13 12 0 0 0
SMALL
GASTEIGER

@<TRIPOS>ATOM
      1 P           3.1612    2.2688    9.8549 P.3     1  UNL1       -0.1154
      2 C           3.2694    0.4694   10.2929 C.3     1  UNL1       -0.0447
      3 H           4.1425    0.3143   10.9251 H       1  UNL1        0.0277
      4 H           2.3896    0.1871   10.8670 H       1  UNL1        0.0277
      5 H           3.3397   -0.1616    9.4073 H       1  UNL1        0.0277
      6 C           1.8546    2.1467    8.5567 C.3     1  UNL1       -0.0447
      7 H           0.9480    1.7197    8.9729 H       1  UNL1        0.0277
      8 H           1.6449    3.1549    8.2018 H       1  UNL1        0.0277
      9 H           2.1903    1.5303    7.7222 H       1  UNL1        0.0277
     10 C           4.5541    2.3146    8.6382 C.3     1  UNL1       -0.0447
     11 H           4.3806    3.1467    7.9591 H       1  UNL1        0.0277
     12 H           4.6011    1.3850    8.0703 H       1  UNL1        0.0277
     13 H           5.4959    2.4772    9.1505 H       1  UNL1        0.0277
@<TRIPOS>BOND
     1     9     6    1
     2    11    10    1
     3    12    10    1
     4     8     6    1
     5     6     7    1
     6     6     1    1
     7    10    13    1
     8    10     1    1
     9     5     2    1
    10     1     2    1
    11     2     4    1
    12     2     3    1
