@<TRIPOS>MOLECULE
1
 34 36 0 0 0
SMALL
GASTEIGER

@<TRIPOS>ATOM
      1 P           2.8434    1.3780    3.9432 P.3     1  UNL1       -0.0131
      2 C           4.5603    1.8364    4.3387 C.ar    1  UNL1       -0.0147
      3 C           5.0113    1.5793    5.6320 C.ar    1  UNL1       -0.0535
      4 H           4.3111    1.1972    6.3613 H       1  UNL1        0.0624
      5 C           6.3378    1.7848    5.9582 C.ar    1  UNL1       -0.0611
      6 H           6.6817    1.5843    6.9626 H       1  UNL1        0.0618
      7 C           7.2285    2.2283    4.9921 C.ar    1  UNL1       -0.0617
      8 H           8.2683    2.3819    5.2448 H       1  UNL1        0.0618
      9 C           6.7886    2.4631    3.7001 C.ar    1  UNL1       -0.0611
     10 H           7.4842    2.7980    2.9429 H       1  UNL1        0.0618
     11 C           5.4595    2.2635    3.3677 C.ar    1  UNL1       -0.0535
     12 H           5.1234    2.4282    2.3526 H       1  UNL1        0.0624
     13 C           1.8723    2.3165    5.1713 C.ar    1  UNL1       -0.0147
     14 C           2.3640    3.3997    5.8883 C.ar    1  UNL1       -0.0535
     15 H           3.4079    3.6750    5.8220 H       1  UNL1        0.0624
     16 C           1.5189    4.1253    6.7099 C.ar    1  UNL1       -0.0611
     17 H           1.9064    4.9664    7.2669 H       1  UNL1        0.0618
     18 C           0.1846    3.7743    6.8243 C.ar    1  UNL1       -0.0617
     19 H          -0.4690    4.3432    7.4698 H       1  UNL1        0.0618
     20 C          -0.3073    2.6897    6.1158 C.ar    1  UNL1       -0.0611
     21 H          -1.3462    2.4093    6.2075 H       1  UNL1        0.0618
     22 C           0.5317    1.9679    5.2892 C.ar    1  UNL1       -0.0535
     23 H           0.1649    1.1169    4.7314 H       1  UNL1        0.0624
     24 C           2.5020    2.4843    2.5180 C.ar    1  UNL1       -0.0147
     25 C           1.9319    1.9991    1.3500 C.ar    1  UNL1       -0.0535
     26 H           1.7061    0.9457    1.2688 H       1  UNL1        0.0624
     27 C           1.6629    2.8494    0.2918 C.ar    1  UNL1       -0.0611
     28 H           1.2213    2.4575   -0.6126 H       1  UNL1        0.0618
     29 C           1.9602    4.1968    0.3934 C.ar    1  UNL1       -0.0617
     30 H           1.7525    4.8626   -0.4315 H       1  UNL1        0.0618
     31 C           2.5260    4.6912    1.5583 C.ar    1  UNL1       -0.0611
     32 H           2.7588    5.7431    1.6424 H       1  UNL1        0.0618
     33 C           2.7933    3.8432    2.6154 C.ar    1  UNL1       -0.0535
     34 H           3.2334    4.2364    3.5209 H       1  UNL1        0.0624
@<TRIPOS>BOND
     1    28    27    1
     2    30    29    1
     3    27    29   ar
     4    27    25   ar
     5    29    31   ar
     6    26    25    1
     7    25    24   ar
     8    31    32    1
     9    31    33   ar
    10    12    11    1
    11    24    33   ar
    12    24     1    1
    13    33    34    1
    14    10     9    1
    15    11     9   ar
    16    11     2   ar
    17     9     7   ar
    18     1     2    1
    19     1    13    1
    20     2     3   ar
    21    23    22    1
    22     7     8    1
    23     7     5   ar
    24    13    22   ar
    25    13    14   ar
    26    22    20   ar
    27     3     5   ar
    28     3     4    1
    29    15    14    1
    30    14    16   ar
    31     5     6    1
    32    20    21    1
    33    20    18   ar
    34    16    18   ar
    35    16    17    1
    36    18    19    1
