@<TRIPOS>MOLECULE
1
 34 36 0 0 0
SMALL
GASTEIGER

@<TRIPOS>ATOM
      1 P           2.9371    2.3293    3.0177 P.3     1  UNL1       -0.0131
      2 C           3.9917    3.4823    2.0715 C.ar    1  UNL1       -0.0147
      3 C           4.2642    3.1072    0.7586 C.ar    1  UNL1       -0.0535
      4 H           3.8997    2.1545    0.3963 H       1  UNL1        0.0624
      5 C           5.0146    3.9283   -0.0602 C.ar    1  UNL1       -0.0611
      6 H           5.2312    3.6220   -1.0719 H       1  UNL1        0.0618
      7 C           5.4975    5.1333    0.4256 C.ar    1  UNL1       -0.0617
      8 H           6.0918    5.7744   -0.2084 H       1  UNL1        0.0618
      9 C           5.2220    5.5145    1.7279 C.ar    1  UNL1       -0.0611
     10 H           5.5972    6.4538    2.1084 H       1  UNL1        0.0618
     11 C           4.4680    4.6964    2.5519 C.ar    1  UNL1       -0.0535
     12 H           4.2661    5.0033    3.5693 H       1  UNL1        0.0624
     13 C           1.3252    2.9780    2.4337 C.ar    1  UNL1       -0.0147
     14 C           1.0911    4.3507    2.4924 C.ar    1  UNL1       -0.0535
     15 H           1.8512    5.0095    2.8893 H       1  UNL1        0.0624
     16 C          -0.1082    4.8710    2.0475 C.ar    1  UNL1       -0.0611
     17 H          -0.2823    5.9362    2.0978 H       1  UNL1        0.0618
     18 C          -1.0856    4.0310    1.5359 C.ar    1  UNL1       -0.0617
     19 H          -2.0215    4.4415    1.1866 H       1  UNL1        0.0618
     20 C          -0.8591    2.6675    1.4755 C.ar    1  UNL1       -0.0611
     21 H          -1.6173    2.0078    1.0800 H       1  UNL1        0.0618
     22 C           0.3417    2.1442    1.9224 C.ar    1  UNL1       -0.0535
     23 H           0.5132    1.0787    1.8851 H       1  UNL1        0.0624
     24 C           2.9734    2.9968    4.7131 C.ar    1  UNL1       -0.0147
     25 C           4.2040    3.1504    5.3491 C.ar    1  UNL1       -0.0535
     26 H           5.1129    2.9579    4.7958 H       1  UNL1        0.0624
     27 C           4.2585    3.5273    6.6773 C.ar    1  UNL1       -0.0611
     28 H           5.2159    3.6457    7.1637 H       1  UNL1        0.0618
     29 C           3.0869    3.7346    7.3887 C.ar    1  UNL1       -0.0617
     30 H           3.1306    4.0213    8.4299 H       1  UNL1        0.0618
     31 C           1.8615    3.5662    6.7665 C.ar    1  UNL1       -0.0611
     32 H           0.9456    3.7194    7.3204 H       1  UNL1        0.0618
     33 C           1.8008    3.1938    5.4350 C.ar    1  UNL1       -0.0535
     34 H           0.8414    3.0445    4.9580 H       1  UNL1        0.0624
@<TRIPOS>BOND
     1     6     5    1
     2     8     7    1
     3     5     7   ar
     4     5     3   ar
     5     4     3    1
     6     7     9   ar
     7     3     2   ar
     8    21    20    1
     9    19    18    1
    10    20    18   ar
    11    20    22   ar
    12    18    16   ar
    13     9    10    1
    14     9    11   ar
    15    23    22    1
    16    22    13   ar
    17    16    17    1
    18    16    14   ar
    19     2    11   ar
    20     2     1    1
    21    13    14   ar
    22    13     1    1
    23    14    15    1
    24    11    12    1
    25     1    24    1
    26    24    25   ar
    27    24    33   ar
    28    26    25    1
    29    34    33    1
    30    25    27   ar
    31    33    31   ar
    32    27    28    1
    33    27    29   ar
    34    31    32    1
    35    31    29   ar
    36    29    30    1
