@<TRIPOS>MOLECULE
1
 34 36 0 0 0
SMALL
GASTEIGER

@<TRIPOS>ATOM
      1 P           2.5396   -3.0878    2.6979 P.3     1  UNL1       -0.0131
      2 C           1.9829   -3.2634    0.9577 C.ar    1  UNL1       -0.0147
      3 C           1.9004   -4.5344    0.3923 C.ar    1  UNL1       -0.0535
      4 H           2.1638   -5.4028    0.9801 H       1  UNL1        0.0624
      5 C           1.4857   -4.6885   -0.9162 C.ar    1  UNL1       -0.0611
      6 H           1.4254   -5.6776   -1.3469 H       1  UNL1        0.0618
      7 C           1.1468   -3.5791   -1.6754 C.ar    1  UNL1       -0.0617
      8 H           0.8208   -3.7034   -2.6977 H       1  UNL1        0.0618
      9 C           1.2307   -2.3141   -1.1212 C.ar    1  UNL1       -0.0611
     10 H           0.9727   -1.4456   -1.7091 H       1  UNL1        0.0618
     11 C           1.6475   -2.1578    0.1893 C.ar    1  UNL1       -0.0535
     12 H           1.7283   -1.1693    0.6171 H       1  UNL1        0.0624
     13 C           4.1838   -3.8699    2.5872 C.ar    1  UNL1       -0.0147
     14 C           4.9272   -3.8146    1.4128 C.ar    1  UNL1       -0.0535
     15 H           4.4927   -3.3883    0.5189 H       1  UNL1        0.0624
     16 C           6.2271   -4.2891    1.3915 C.ar    1  UNL1       -0.0611
     17 H           6.7974   -4.2434    0.4742 H       1  UNL1        0.0618
     18 C           6.7978   -4.8117    2.5397 C.ar    1  UNL1       -0.0617
     19 H           7.8147   -5.1777    2.5209 H       1  UNL1        0.0618
     20 C           6.0664   -4.8570    3.7164 C.ar    1  UNL1       -0.0611
     21 H           6.5138   -5.2514    4.6174 H       1  UNL1        0.0618
     22 C           4.7699   -4.3797    3.7446 C.ar    1  UNL1       -0.0535
     23 H           4.2055   -4.3829    4.6666 H       1  UNL1        0.0624
     24 C           1.4857   -4.4107    3.3938 C.ar    1  UNL1       -0.0147
     25 C           0.1791   -4.0338    3.6903 C.ar    1  UNL1       -0.0535
     26 H          -0.1061   -2.9998    3.5507 H       1  UNL1        0.0624
     27 C          -0.7248   -4.9621    4.1684 C.ar    1  UNL1       -0.0611
     28 H          -1.7364   -4.6614    4.3967 H       1  UNL1        0.0618
     29 C          -0.3303   -6.2774    4.3585 C.ar    1  UNL1       -0.0617
     30 H          -1.0321   -7.0050    4.7385 H       1  UNL1        0.0618
     31 C           0.9667   -6.6585    4.0610 C.ar    1  UNL1       -0.0611
     32 H           1.2762   -7.6837    4.2059 H       1  UNL1        0.0618
     33 C           1.8742   -5.7327    3.5743 C.ar    1  UNL1       -0.0535
     34 H           2.8838   -6.0451    3.3449 H       1  UNL1        0.0624
@<TRIPOS>BOND
     1     8     7    1
     2    10     9    1
     3     7     9   ar
     4     7     5   ar
     5     6     5    1
     6     9    11   ar
     7     5     3   ar
     8    11    12    1
     9    11     2   ar
    10     3     2   ar
    11     3     4    1
    12    17    16    1
    13    15    14    1
    14     2     1    1
    15    16    14   ar
    16    16    18   ar
    17    14    13   ar
    18    19    18    1
    19    18    20   ar
    20    13     1    1
    21    13    22   ar
    22     1    24    1
    23    34    33    1
    24    24    33   ar
    25    24    25   ar
    26    26    25    1
    27    33    31   ar
    28    25    27   ar
    29    20    22   ar
    30    20    21    1
    31    22    23    1
    32    31    32    1
    33    31    29   ar
    34    27    29   ar
    35    27    28    1
    36    29    30    1
