@<TRIPOS>MOLECULE
1
 34 36 0 0 0
SMALL
GASTEIGER

@<TRIPOS>ATOM
      1 P           2.9371   -2.3292    3.0177 P.3     1  UNL1       -0.0131
      2 C           3.9917   -3.4823    2.0717 C.ar    1  UNL1       -0.0147
      3 C           4.2643   -3.1072    0.7588 C.ar    1  UNL1       -0.0535
      4 H           3.8997   -2.1545    0.3966 H       1  UNL1        0.0624
      5 C           5.0147   -3.9283   -0.0600 C.ar    1  UNL1       -0.0611
      6 H           5.2314   -3.6219   -1.0717 H       1  UNL1        0.0618
      7 C           5.4976   -5.1333    0.4259 C.ar    1  UNL1       -0.0617
      8 H           6.0920   -5.7743   -0.2081 H       1  UNL1        0.0618
      9 C           5.2221   -5.5145    1.7281 C.ar    1  UNL1       -0.0611
     10 H           5.5972   -6.4538    2.1086 H       1  UNL1        0.0618
     11 C           4.4681   -4.6964    2.5521 C.ar    1  UNL1       -0.0535
     12 H           4.2661   -5.0033    3.5695 H       1  UNL1        0.0624
     13 C           1.3253   -2.9781    2.4337 C.ar    1  UNL1       -0.0147
     14 C           1.0912   -4.3508    2.4922 C.ar    1  UNL1       -0.0535
     15 H           1.8513   -5.0097    2.8889 H       1  UNL1        0.0624
     16 C          -0.1081   -4.8711    2.0473 C.ar    1  UNL1       -0.0611
     17 H          -0.2821   -5.9363    2.0973 H       1  UNL1        0.0618
     18 C          -1.0856   -4.0310    1.5360 C.ar    1  UNL1       -0.0617
     19 H          -2.0216   -4.4415    1.1868 H       1  UNL1        0.0618
     20 C          -0.8591   -2.6675    1.4757 C.ar    1  UNL1       -0.0611
     21 H          -1.6175   -2.0078    1.0805 H       1  UNL1        0.0618
     22 C           0.3417   -2.1443    1.9225 C.ar    1  UNL1       -0.0535
     23 H           0.5134   -1.0788    1.8851 H       1  UNL1        0.0624
     24 C           2.9733   -2.9967    4.7131 C.ar    1  UNL1       -0.0147
     25 C           4.2039   -3.1504    5.3491 C.ar    1  UNL1       -0.0535
     26 H           5.1128   -2.9579    4.7959 H       1  UNL1        0.0624
     27 C           4.2584   -3.5274    6.6773 C.ar    1  UNL1       -0.0611
     28 H           5.2158   -3.6459    7.1638 H       1  UNL1        0.0618
     29 C           3.0868   -3.7348    7.3887 C.ar    1  UNL1       -0.0617
     30 H           3.1304   -4.0214    8.4299 H       1  UNL1        0.0618
     31 C           1.8613   -3.5663    6.7665 C.ar    1  UNL1       -0.0611
     32 H           0.9455   -3.7195    7.3204 H       1  UNL1        0.0618
     33 C           1.8006   -3.1938    5.4350 C.ar    1  UNL1       -0.0535
     34 H           0.8413   -3.0445    4.9580 H       1  UNL1        0.0624
@<TRIPOS>BOND
     1     6     5    1
     2     8     7    1
     3     5     7   ar
     4     5     3   ar
     5     4     3    1
     6     7     9   ar
     7     3     2   ar
     8    21    20    1
     9    19    18    1
    10    20    18   ar
    11    20    22   ar
    12    18    16   ar
    13     9    10    1
    14     9    11   ar
    15    23    22    1
    16    22    13   ar
    17    16    17    1
    18    16    14   ar
    19     2    11   ar
    20     2     1    1
    21    13    14   ar
    22    13     1    1
    23    14    15    1
    24    11    12    1
    25     1    24    1
    26    24    25   ar
    27    24    33   ar
    28    26    25    1
    29    34    33    1
    30    25    27   ar
    31    33    31   ar
    32    27    28    1
    33    27    29   ar
    34    31    32    1
    35    31    29   ar
    36    29    30    1
