@<TRIPOS>MOLECULE
1
 13 12 0 0 0
SMALL
GASTEIGER

@<TRIPOS>ATOM
      1 P           2.4119    3.4712    2.4668 P.3     1  UNL1       -0.1154
      2 C           4.1159    2.9760    1.9744 C.3     1  UNL1       -0.0447
      3 C           1.9724    4.4704    0.9922 C.3     1  UNL1       -0.0447
      4 C           2.8500    4.8113    3.6539 C.3     1  UNL1       -0.0447
      5 H           4.6827    3.8437    1.6375 H       1  UNL1        0.0277
      6 H           4.0482    2.2491    1.1675 H       1  UNL1        0.0277
      7 H           4.6274    2.5256    2.8223 H       1  UNL1        0.0277
      8 H           1.0277    4.9769    1.1666 H       1  UNL1        0.0277
      9 H           1.8514    3.7955    0.1477 H       1  UNL1        0.0277
     10 H           2.7504    5.2035    0.7802 H       1  UNL1        0.0277
     11 H           3.3951    4.3922    4.4971 H       1  UNL1        0.0277
     12 H           1.9441    5.2810    4.0237 H       1  UNL1        0.0277
     13 H           3.4745    5.5524    3.1572 H       1  UNL1        0.0277
@<TRIPOS>BOND
     1     9     3    1
     2    10     3    1
     3     3     8    1
     4     3     1    1
     5     6     2    1
     6     5     2    1
     7     2     1    1
     8     2     7    1
     9     1     4    1
    10    13     4    1
    11     4    12    1
    12     4    11    1
