@<TRIPOS>MOLECULE
1
 13 12 0 0 0
SMALL
GASTEIGER

@<TRIPOS>ATOM
      1 P           4.7908    2.7290    9.4656 P.3     1  UNL1       -0.1154
      2 C           2.9468    2.7290    9.4229 C.3     1  UNL1       -0.0447
      3 C           5.1039    4.0993    8.2796 C.3     1  UNL1       -0.0447
      4 H           2.6000    2.7291    8.3900 H       1  UNL1        0.0277
      5 H           2.5621    1.8453    9.9292 H       1  UNL1        0.0277
      6 H           6.1510    4.0766    7.9820 H       1  UNL1        0.0277
      7 H           4.8823    5.0685    8.7204 H       1  UNL1        0.0277
      8 H           4.4784    3.9563    7.3981 H       1  UNL1        0.0277
      9 C           5.1038    1.3587    8.2796 C.3     1  UNL1       -0.0447
     10 H           2.5622    3.6128    9.9293 H       1  UNL1        0.0277
     11 H           6.1509    1.3814    7.9819 H       1  UNL1        0.0277
     12 H           4.8822    0.3895    8.7204 H       1  UNL1        0.0277
     13 H           4.4784    1.5017    7.3981 H       1  UNL1        0.0277
@<TRIPOS>BOND
     1     8     3    1
     2    13     9    1
     3    11     9    1
     4     6     3    1
     5     9    12    1
     6     9     1    1
     7     3     7    1
     8     3     1    1
     9     4     2    1
    10     2     1    1
    11     2     5    1
    12     2    10    1
