@<TRIPOS>MOLECULE
1
 13 12 0 0 0
SMALL
GASTEIGER

@<TRIPOS>ATOM
      1 P           5.9167    5.0201   11.7569 P.3     1  UNL1       -0.1154
      2 C           4.3171    5.8851   11.4618 C.3     1  UNL1       -0.0447
      3 C           6.2772    5.7111   13.4143 C.3     1  UNL1       -0.0447
      4 C           7.0674    6.0451   10.7673 C.3     1  UNL1       -0.0447
      5 H           3.6057    5.5847   12.2287 H       1  UNL1        0.0277
      6 H           3.9001    5.6351   10.4893 H       1  UNL1        0.0277
      7 H           4.4720    6.9622   11.5206 H       1  UNL1        0.0277
      8 H           5.6217    5.2700   14.1628 H       1  UNL1        0.0277
      9 H           6.1271    6.7908   13.3922 H       1  UNL1        0.0277
     10 H           7.3072    5.4886   13.6834 H       1  UNL1        0.0277
     11 H           8.0860    5.7792   11.0458 H       1  UNL1        0.0277
     12 H           6.8935    7.1003   10.9778 H       1  UNL1        0.0277
     13 H           6.9478    5.8561    9.7032 H       1  UNL1        0.0277
@<TRIPOS>BOND
     1    13     4    1
     2     6     2    1
     3     4    12    1
     4     4    11    1
     5     4     1    1
     6     2     7    1
     7     2     1    1
     8     2     5    1
     9     1     3    1
    10     9     3    1
    11     3    10    1
    12     3     8    1
