@<TRIPOS>MOLECULE
1
 13 12 0 0 0
SMALL
GASTEIGER

@<TRIPOS>ATOM
      1 P           5.9167    0.4378   11.7569 P.3     1  UNL1       -0.1154
      2 C           4.3171   -0.4271   11.4618 C.3     1  UNL1       -0.0447
      3 C           6.2772   -0.2533   13.4142 C.3     1  UNL1       -0.0447
      4 C           7.0673   -0.5872   10.7673 C.3     1  UNL1       -0.0447
      5 H           3.6057   -0.1267   12.2287 H       1  UNL1        0.0277
      6 H           3.9001   -0.1770   10.4893 H       1  UNL1        0.0277
      7 H           4.4719   -1.5042   11.5206 H       1  UNL1        0.0277
      8 H           5.6218    0.1878   14.1628 H       1  UNL1        0.0277
      9 H           6.1270   -1.3329   13.3921 H       1  UNL1        0.0277
     10 H           7.3072   -0.0308   13.6834 H       1  UNL1        0.0277
     11 H           8.0860   -0.3214   11.0457 H       1  UNL1        0.0277
     12 H           6.8934   -1.6424   10.9778 H       1  UNL1        0.0277
     13 H           6.9477   -0.3982    9.7031 H       1  UNL1        0.0277
@<TRIPOS>BOND
     1    13     4    1
     2     6     2    1
     3     4    12    1
     4     4    11    1
     5     4     1    1
     6     2     7    1
     7     2     1    1
     8     2     5    1
     9     1     3    1
    10     9     3    1
    11     3    10    1
    12     3     8    1
