@<TRIPOS>MOLECULE
1
 54 57 0 0 0
SMALL
GASTEIGER

@<TRIPOS>ATOM
      1 P           0.8779    3.9420   11.0784 P.3     1  UNL1        0.0000
      2 SI          0.4062    1.8478   11.8019 Si      1  UNL1        0.0000
      3 C          -0.1026    3.5421   12.3995 C.2     1  UNL1        0.0000
      4 C          -0.8487    4.2523   13.4671 C.3     1  UNL1        0.0000
      5 C          -1.9345    3.3557   14.0696 C.3     1  UNL1        0.0000
      6 H          -2.6395    3.0614   13.2886 H       1  UNL1        0.0000
      7 H          -1.4777    2.4464   14.4695 H       1  UNL1        0.0000
      8 C          -2.6730    4.1090   15.1760 C.3     1  UNL1        0.0000
      9 H          -3.4484    3.4601   15.5993 H       1  UNL1        0.0000
     10 C          -1.6874    4.5077   16.2733 C.3     1  UNL1        0.0000
     11 H          -1.2314    3.6150   16.7083 H       1  UNL1        0.0000
     12 H          -2.2143    5.0359   17.0707 H       1  UNL1        0.0000
     13 C          -0.6063    5.4091   15.6786 C.3     1  UNL1        0.0000
     14 H           0.1067    5.6920   16.4609 H       1  UNL1        0.0000
     15 C          -1.2476    6.6661   15.0938 C.3     1  UNL1        0.0000
     16 H          -1.7638    7.2200   15.8809 H       1  UNL1        0.0000
     17 H          -0.4761    7.3160   14.6765 H       1  UNL1        0.0000
     18 C          -2.2378    6.2664   14.0015 C.3     1  UNL1        0.0000
     19 H          -2.6999    7.1651   13.5790 H       1  UNL1        0.0000
     20 C          -1.4981    5.5167   12.8962 C.3     1  UNL1        0.0000
     21 H          -0.7229    6.1541   12.4621 H       1  UNL1        0.0000
     22 H          -2.1900    5.2390   12.0972 H       1  UNL1        0.0000
     23 C           0.1349    4.6531   14.5783 C.3     1  UNL1        0.0000
     24 H           0.6013    3.7550   14.9922 H       1  UNL1        0.0000
     25 H           0.9247    5.2762   14.1536 H       1  UNL1        0.0000
     26 C          -3.3206    5.3646   14.5931 C.3     1  UNL1        0.0000
     27 H          -3.8630    5.8990   15.3760 H       1  UNL1        0.0000
     28 H          -4.0386    5.0880   13.8176 H       1  UNL1        0.0000
     29 C          -0.7642    0.9179   10.5859 C.3     1  UNL1        0.0000
     30 C          -0.0044    0.4619    9.3405 C.3     1  UNL1        0.0000
     31 H           0.7607   -0.2700    9.5838 H       1  UNL1        0.0000
     32 H           0.4706    1.3104    8.8516 H       1  UNL1        0.0000
     33 H          -0.6931    0.0037    8.6312 H       1  UNL1        0.0000
     34 C          -1.4009   -0.2889   11.2729 C.3     1  UNL1        0.0000
     35 H          -0.6477   -1.0095   11.5843 H       1  UNL1        0.0000
     36 H          -2.0825   -0.7935   10.5888 H       1  UNL1        0.0000
     37 H          -1.9669    0.0181   12.1499 H       1  UNL1        0.0000
     38 C          -1.8595    1.8888   10.1555 C.3     1  UNL1        0.0000
     39 H          -1.4286    2.7685    9.6782 H       1  UNL1        0.0000
     40 H          -2.4459    2.2210   11.0086 H       1  UNL1        0.0000
     41 H          -2.5305    1.4097    9.4440 H       1  UNL1        0.0000
     42 C           1.8681    0.9792   12.7124 C.3     1  UNL1        0.0000
     43 C           2.9210    2.0395   13.0232 C.3     1  UNL1        0.0000
     44 H           2.5043    2.8366   13.6350 H       1  UNL1        0.0000
     45 H           3.3051    2.4867   12.1070 H       1  UNL1        0.0000
     46 H           3.7571    1.5963   13.5623 H       1  UNL1        0.0000
     47 C           2.5056   -0.1160   11.8600 C.3     1  UNL1        0.0000
     48 H           1.7982   -0.9147   11.6477 H       1  UNL1        0.0000
     49 H           3.3507   -0.5547   12.3902 H       1  UNL1        0.0000
     50 H           2.8717    0.2879   10.9189 H       1  UNL1        0.0000
     51 C           1.3657    0.3716   14.0229 C.3     1  UNL1        0.0000
     52 H           0.6097   -0.3891   13.8408 H       1  UNL1        0.0000
     53 H           0.9335    1.1381   14.6622 H       1  UNL1        0.0000
     54 H           2.1903   -0.0935   14.5621 H       1  UNL1        0.0000
@<TRIPOS>BOND
     1    33    30    1
     2    32    30    1
     3    30    31    1
     4    30    29    1
     5    41    38    1
     6    39    38    1
     7    38    29    1
     8    38    40    1
     9    29    34    1
    10    29     2    1
    11    36    34    1
    12    50    47    1
    13     1     2    1
    14     1     3    2
    15    34    35    1
    16    34    37    1
    17    48    47    1
    18     2     3    1
    19     2    42    1
    20    47    49    1
    21    47    42    1
    22    22    20    1
    23    45    43    1
    24     3     4    1
    25    21    20    1
    26    42    43    1
    27    42    51    1
    28    20     4    1
    29    20    18    1
    30    43    46    1
    31    43    44    1
    32     6     5    1
    33     4     5    1
    34     4    23    1
    35    19    18    1
    36    28    26    1
    37    52    51    1
    38    18    26    1
    39    18    15    1
    40    51    54    1
    41    51    53    1
    42     5     7    1
    43     5     8    1
    44    25    23    1
    45    23    24    1
    46    23    13    1
    47    26     8    1
    48    26    27    1
    49    17    15    1
    50    15    13    1
    51    15    16    1
    52     8     9    1
    53     8    10    1
    54    13    10    1
    55    13    14    1
    56    10    11    1
    57    10    12    1
