@<TRIPOS>MOLECULE
1
 34 36 0 0 0
SMALL
GASTEIGER

@<TRIPOS>ATOM
      1 P           4.4977   14.5419    2.3778 P.3     1  UNL1       -0.0131
      2 C           5.5065   15.9156    3.0424 C.ar    1  UNL1       -0.0147
      3 C           6.8468   15.6790    3.3134 C.ar    1  UNL1       -0.0535
      4 C           7.6494   16.6846    3.8218 C.ar    1  UNL1       -0.0611
      5 C           7.1124   17.9369    4.0662 C.ar    1  UNL1       -0.0617
      6 C           5.7723   18.1800    3.8043 C.ar    1  UNL1       -0.0611
      7 C           4.9692   17.1765    3.2959 C.ar    1  UNL1       -0.0535
      8 C           3.9326   15.2250    0.7761 C.ar    1  UNL1       -0.0147
      9 C           4.3154   16.4688    0.2840 C.ar    1  UNL1       -0.0535
     10 C           3.8479   16.9074   -0.9429 C.ar    1  UNL1       -0.0611
     11 C           2.9966   16.1129   -1.6917 C.ar    1  UNL1       -0.0617
     12 C           2.6381   14.8599   -1.2223 C.ar    1  UNL1       -0.0611
     13 C           3.1147   14.4102   -0.0044 C.ar    1  UNL1       -0.0535
     14 C           2.9907   14.7315    3.4134 C.ar    1  UNL1       -0.0147
     15 C           3.1117   15.1279    4.7455 C.ar    1  UNL1       -0.0535
     16 C           2.0152   15.1059    5.5882 C.ar    1  UNL1       -0.0611
     17 C           0.7824   14.6852    5.1195 C.ar    1  UNL1       -0.0617
     18 C           0.6483   14.3114    3.7936 C.ar    1  UNL1       -0.0611
     19 C           1.7414   14.3339    2.9467 C.ar    1  UNL1       -0.0535
     20 H           7.2418   14.6875    3.1335 H       1  UNL1        0.0624
     21 H           8.6915   16.4928    4.0338 H       1  UNL1        0.0618
     22 H           7.7340   18.7243    4.4666 H       1  UNL1        0.0618
     23 H           5.3526   19.1559    4.0016 H       1  UNL1        0.0618
     24 H           3.9208   17.3608    3.1023 H       1  UNL1        0.0624
     25 H           4.9865   17.0977    0.8503 H       1  UNL1        0.0624
     26 H           4.1523   17.8750   -1.3152 H       1  UNL1        0.0618
     27 H           2.6277   16.4625   -2.6447 H       1  UNL1        0.0618
     28 H           1.9957   14.2257   -1.8148 H       1  UNL1        0.0618
     29 H           2.8794   13.4117    0.3398 H       1  UNL1        0.0624
     30 H           4.0645   15.4691    5.1281 H       1  UNL1        0.0624
     31 H           2.1284   15.4121    6.6182 H       1  UNL1        0.0618
     32 H          -0.0684   14.6521    5.7835 H       1  UNL1        0.0618
     33 H          -0.3099   13.9878    3.4152 H       1  UNL1        0.0618
     34 H           1.6152   14.0362    1.9186 H       1  UNL1        0.0624
@<TRIPOS>BOND
     1    27    11    1
     2    28    12    1
     3    11    12   ar
     4    11    10   ar
     5    26    10    1
     6    12    13   ar
     7    10     9   ar
     8    13    29    1
     9    13     8   ar
    10     9     8   ar
    11     9    25    1
    12     8     1    1
    13    34    19    1
    14     1     2    1
    15     1    14    1
    16    19    14   ar
    17    19    18   ar
    18     2     7   ar
    19     2     3   ar
    20    24     7    1
    21    20     3    1
    22     7     6   ar
    23     3     4   ar
    24    14    15   ar
    25    33    18    1
    26    18    17   ar
    27     6    23    1
    28     6     5   ar
    29     4    21    1
    30     4     5   ar
    31     5    22    1
    32    15    30    1
    33    15    16   ar
    34    17    16   ar
    35    17    32    1
    36    16    31    1
