@<TRIPOS>MOLECULE
1
 13 12 0 0 0
SMALL
GASTEIGER

@<TRIPOS>ATOM
      1 P           6.6350    4.5130    0.5984 P.3     1  UNL1       -0.1154
      2 C           6.8239    3.9846   -1.1506 C.3     1  UNL1       -0.0447
      3 C           6.6604    6.3304    0.3344 C.3     1  UNL1       -0.0447
      4 C           4.8330    4.2297    0.8417 C.3     1  UNL1       -0.0447
      5 H           6.0700    4.4674   -1.7719 H       1  UNL1        0.0277
      6 H           7.8149    4.2728   -1.4937 H       1  UNL1        0.0277
      7 H           6.7315    2.9055   -1.2381 H       1  UNL1        0.0277
      8 H           7.6528    6.6159   -0.0072 H       1  UNL1        0.0277
      9 H           5.9227    6.6114   -0.4169 H       1  UNL1        0.0277
     10 H           6.4537    6.8559    1.2627 H       1  UNL1        0.0277
     11 H           4.2721    4.6888    0.0283 H       1  UNL1        0.0277
     12 H           4.6273    3.1608    0.8621 H       1  UNL1        0.0277
     13 H           4.5141    4.6647    1.7874 H       1  UNL1        0.0277
@<TRIPOS>BOND
     1     5     2    1
     2     6     2    1
     3     7     2    1
     4     2     1    1
     5     9     3    1
     6     8     3    1
     7    11     4    1
     8     3     1    1
     9     3    10    1
    10     1     4    1
    11     4    12    1
    12     4    13    1
