@<TRIPOS>MOLECULE
1
 13 12 0 0 0
SMALL
GASTEIGER

@<TRIPOS>ATOM
      1 P           4.5682   -1.7746    4.6742 P.3     1  UNL1       -0.1154
      2 C           2.8112   -1.8171    5.2097 C.3     1  UNL1       -0.0447
      3 H           2.4237   -2.8361    5.1693 H       1  UNL1        0.0277
      4 H           2.2226   -1.1763    4.5534 H       1  UNL1        0.0277
      5 H           2.7308   -1.4398    6.2283 H       1  UNL1        0.0277
      6 C           5.2632   -2.9826    5.8633 C.3     1  UNL1       -0.0447
      7 H           4.6902   -3.9105    5.8427 H       1  UNL1        0.0277
      8 H           5.2145   -2.5427    6.8594 H       1  UNL1        0.0277
      9 H           6.3043   -3.1853    5.6252 H       1  UNL1        0.0277
     10 C           4.3965   -2.7788    3.1491 C.3     1  UNL1       -0.0447
     11 H           5.3644   -2.9396    2.6822 H       1  UNL1        0.0277
     12 H           3.7619   -2.2306    2.4527 H       1  UNL1        0.0277
     13 H           3.9345   -3.7390    3.3827 H       1  UNL1        0.0277
@<TRIPOS>BOND
     1    12    10    1
     2    11    10    1
     3    10    13    1
     4    10     1    1
     5     4     2    1
     6     1     2    1
     7     1     6    1
     8     3     2    1
     9     2     5    1
    10     9     6    1
    11     7     6    1
    12     6     8    1
