@<TRIPOS>MOLECULE
1
 13 12 0 0 0
SMALL
GASTEIGER

@<TRIPOS>ATOM
      1 P           3.2189    6.6355    4.4788 P.3     1  UNL1       -0.1154
      2 C           3.4070    8.4613    4.6901 C.3     1  UNL1       -0.0447
      3 H           3.1287    8.9752    3.7720 H       1  UNL1        0.0277
      4 H           4.4435    8.7020    4.9199 H       1  UNL1        0.0277
      5 H           2.7670    8.8005    5.5053 H       1  UNL1        0.0277
      6 C           3.4295    6.0988    6.2223 C.3     1  UNL1       -0.0447
      7 H           3.2332    5.0268    6.2759 H       1  UNL1        0.0277
      8 H           4.4405    6.2944    6.5738 H       1  UNL1        0.0277
      9 H           2.7207    6.6352    6.8554 H       1  UNL1        0.0277
     10 C           1.3845    6.5129    4.4213 C.3     1  UNL1       -0.0447
     11 H           0.9592    7.0372    5.2785 H       1  UNL1        0.0277
     12 H           1.1155    5.4566    4.4684 H       1  UNL1        0.0277
     13 H           0.9829    6.9413    3.5055 H       1  UNL1        0.0277
@<TRIPOS>BOND
     1    13    10    1
     2     3     2    1
     3    10    12    1
     4    10     1    1
     5    10    11    1
     6     1     2    1
     7     1     6    1
     8     2     4    1
     9     2     5    1
    10     6     7    1
    11     6     8    1
    12     6     9    1
