@<TRIPOS>MOLECULE
1
 13 12 0 0 0
SMALL
GASTEIGER

@<TRIPOS>ATOM
      1 P           4.9150    2.1203    1.9810 P.3     1  UNL1       -0.1154
      2 C           4.7776    0.2923    1.7491 C.3     1  UNL1       -0.0447
      3 C           4.7115    2.6807    0.2449 C.3     1  UNL1       -0.0447
      4 C           6.7401    2.2896    2.0773 C.3     1  UNL1       -0.0447
      5 H           7.1912    1.8155    1.2041 H       1  UNL1        0.0277
      6 H           3.7080    2.4783   -0.1240 H       1  UNL1        0.0277
      7 H           4.8953    3.7557    0.2094 H       1  UNL1        0.0277
      8 H           6.9850    3.3529    2.0851 H       1  UNL1        0.0277
      9 H           5.4359    2.1637   -0.3866 H       1  UNL1        0.0277
     10 H           7.1352    1.8256    2.9788 H       1  UNL1        0.0277
     11 H           3.7491    0.0186    1.5215 H       1  UNL1        0.0277
     12 H           5.0801   -0.2225    2.6593 H       1  UNL1        0.0277
     13 H           5.4255   -0.0138    0.9271 H       1  UNL1        0.0277
@<TRIPOS>BOND
     1     9     3    1
     2     6     3    1
     3     7     3    1
     4     3     1    1
     5    13     2    1
     6     5     4    1
     7    11     2    1
     8     2     1    1
     9     2    12    1
    10     1     4    1
    11     4     8    1
    12     4    10    1
