@<TRIPOS>MOLECULE
1
 44 48 0 0 0
SMALL
GASTEIGER

@<TRIPOS>ATOM
      1 P          -0.6285    8.8853    6.7482 P.3     1  UNL1        0.4038
      2 O           0.0336    8.5108    5.3046 O.2     1  UNL1       -0.4235
      3 O          -1.2741    7.4301    7.1526 O.2     1  UNL1       -0.4235
      4 N          -2.0408    9.6872    6.3585 N.pl3   1  UNL1       -0.2804
      5 C          -0.3797    7.4966    4.4599 C.ar    1  UNL1        0.1381
      6 C          -0.3536    6.1707    4.8385 C.ar    1  UNL1        0.0360
      7 C           0.1451    5.7799    6.1709 C.ar    1  UNL1        0.0360
      8 C          -0.3651    6.3941    7.2941 C.ar    1  UNL1        0.1381
      9 C          -0.0104    5.9874    8.5885 C.ar    1  UNL1       -0.0183
     10 H          -0.4660    6.4955    9.4246 H       1  UNL1        0.0654
     11 C           0.8876    4.9739    8.7577 C.ar    1  UNL1       -0.0505
     12 H           1.1582    4.6427    9.7486 H       1  UNL1        0.0625
     13 C           1.5160    4.3782    7.6436 C.ar    1  UNL1       -0.0171
     14 C           1.1560    4.7891    6.3329 C.ar    1  UNL1       -0.0065
     15 C           1.8615    4.2452    5.2383 C.ar    1  UNL1       -0.0533
     16 H           1.6344    4.5923    4.2420 H       1  UNL1        0.0624
     17 C           2.8393    3.3095    5.4300 C.ar    1  UNL1       -0.0611
     18 H           3.3768    2.9095    4.5831 H       1  UNL1        0.0618
     19 C           3.1617    2.8691    6.7218 C.ar    1  UNL1       -0.0612
     20 H           3.9309    2.1228    6.8534 H       1  UNL1        0.0618
     21 C           2.5168    3.3975    7.8042 C.ar    1  UNL1       -0.0540
     22 H           2.7738    3.0844    8.8056 H       1  UNL1        0.0624
     23 C          -0.8578    5.1910    3.9322 C.ar    1  UNL1       -0.0065
     24 C          -1.2418    5.5817    2.6225 C.ar    1  UNL1       -0.0171
     25 C          -1.1593    6.9413    2.2547 C.ar    1  UNL1       -0.0505
     26 H          -1.4383    7.2312    1.2528 H       1  UNL1        0.0625
     27 C          -0.7679    7.8799    3.1622 C.ar    1  UNL1       -0.0183
     28 H          -0.7427    8.9300    2.9133 H       1  UNL1        0.0654
     29 C          -1.7206    4.6072    1.7227 C.ar    1  UNL1       -0.0540
     30 H          -1.9944    4.9187    0.7250 H       1  UNL1        0.0624
     31 C          -1.8511    3.3026    2.1066 C.ar    1  UNL1       -0.0612
     32 H          -2.2215    2.5619    1.4137 H       1  UNL1        0.0618
     33 C          -1.5237    2.9242    3.4164 C.ar    1  UNL1       -0.0611
     34 H          -1.6607    1.8977    3.7222 H       1  UNL1        0.0618
     35 C          -1.0399    3.8423    4.3068 C.ar    1  UNL1       -0.0533
     36 H          -0.8062    3.5406    5.3158 H       1  UNL1        0.0624
     37 C          -3.0844    9.0576    5.5730 C.3     1  UNL1        0.0049
     38 H          -3.8495    8.6047    6.2125 H       1  UNL1        0.0429
     39 H          -2.6629    8.2798    4.9398 H       1  UNL1        0.0429
     40 H          -3.5592    9.8109    4.9397 H       1  UNL1        0.0429
     41 C          -2.5326   10.7273    7.2349 C.3     1  UNL1        0.0049
     42 H          -2.8251   11.6004    6.6479 H       1  UNL1        0.0429
     43 H          -1.7392   11.0103    7.9238 H       1  UNL1        0.0429
     44 H          -3.3928   10.3810    7.8162 H       1  UNL1        0.0429
@<TRIPOS>BOND
     1    30    29    1
     2    26    25    1
     3    32    31    1
     4    29    31   ar
     5    29    24   ar
     6    31    33   ar
     7    25    24   ar
     8    25    27   ar
     9    24    23   ar
    10    28    27    1
    11    27     5   ar
    12    33    34    1
    13    33    35   ar
    14    23    35   ar
    15    23     6   ar
    16    16    15    1
    17    35    36    1
    18     5     6   ar
    19     5     2   ar
    20    18    17    1
    21     6     7   ar
    22    40    37    1
    23    39    37    1
    24    15    17   ar
    25    15    14   ar
    26     2     1   ar
    27    17    19   ar
    28    37    38    1
    29    37     4    1
    30     7    14   ar
    31     7     8   ar
    32    14    13   ar
    33     4     1    1
    34     4    41    1
    35    42    41    1
    36    19    20    1
    37    19    21   ar
    38     1     3   ar
    39     3     8   ar
    40    41    44    1
    41    41    43    1
    42     8     9   ar
    43    13    21   ar
    44    13    11   ar
    45    21    22    1
    46     9    11   ar
    47     9    10    1
    48    11    12    1
