@<TRIPOS>MOLECULE
1
 64 70 0 0 0
SMALL
GASTEIGER

@<TRIPOS>ATOM
      1 P          10.4366    5.7321    5.3701 P.3     1  UNL1        0.4039
      2 O           8.8132    5.8092    5.1961 O.2     1  UNL1       -0.4229
      3 O          10.9292    5.8819    3.8182 O.2     1  UNL1       -0.4229
      4 N          10.7554    4.0846    5.5119 N.pl3   1  UNL1       -0.2804
      5 C           8.1043    5.4815    4.0515 C.ar    1  UNL1        0.1457
      6 C           8.3433    6.1386    2.8614 C.ar    1  UNL1        0.0367
      7 C           9.3099    7.2542    2.7697 C.ar    1  UNL1        0.0367
      8 C          10.6110    7.0672    3.1766 C.ar    1  UNL1        0.1457
      9 C          11.6230    8.0264    2.9419 C.ar    1  UNL1        0.0255
     10 C          11.2643    9.2065    2.3364 C.ar    1  UNL1       -0.0428
     11 H          12.0221    9.9442    2.1179 H       1  UNL1        0.0631
     12 C           9.9255    9.4953    2.0120 C.ar    1  UNL1       -0.0165
     13 C           8.9241    8.5136    2.2294 C.ar    1  UNL1       -0.0065
     14 C           7.5807    8.8436    1.9545 C.ar    1  UNL1       -0.0533
     15 H           6.8081    8.1188    2.1613 H       1  UNL1        0.0624
     16 C           7.2514   10.0731    1.4557 C.ar    1  UNL1       -0.0611
     17 H           6.2179   10.3168    1.2589 H       1  UNL1        0.0618
     18 C           8.2454   11.0297    1.2026 C.ar    1  UNL1       -0.0612
     19 H           7.9670   11.9928    0.8014 H       1  UNL1        0.0618
     20 C           9.5532   10.7472    1.4783 C.ar    1  UNL1       -0.0540
     21 H          10.3245   11.4839    1.3076 H       1  UNL1        0.0624
     22 C          13.0211    7.7627    3.3159 C.ar    1  UNL1       -0.0143
     23 C          13.7858    8.7612    3.9157 C.ar    1  UNL1       -0.0539
     24 H          13.3346    9.7153    4.1415 H       1  UNL1        0.0624
     25 C          15.1086    8.5305    4.2429 C.ar    1  UNL1       -0.0612
     26 H          15.6879    9.3105    4.7150 H       1  UNL1        0.0618
     27 C          15.6896    7.3034    3.9717 C.ar    1  UNL1       -0.0617
     28 H          16.7217    7.1225    4.2325 H       1  UNL1        0.0618
     29 C          14.9407    6.3089    3.3662 C.ar    1  UNL1       -0.0612
     30 H          15.3914    5.3519    3.1463 H       1  UNL1        0.0618
     31 C          13.6167    6.5347    3.0390 C.ar    1  UNL1       -0.0539
     32 H          13.0428    5.7627    2.5488 H       1  UNL1        0.0624
     33 C           7.6648    5.7200    1.6786 C.ar    1  UNL1       -0.0065
     34 C           6.6434    4.7420    1.7803 C.ar    1  UNL1       -0.0165
     35 C           6.3363    4.2048    3.0434 C.ar    1  UNL1       -0.0428
     36 H           5.5323    3.4872    3.1215 H       1  UNL1        0.0631
     37 C           7.0568    4.5306    4.1655 C.ar    1  UNL1        0.0255
     38 C           6.6681    3.9280    5.4555 C.ar    1  UNL1       -0.0143
     39 C           7.5767    3.2772    6.2823 C.ar    1  UNL1       -0.0539
     40 H           8.6134    3.2146    5.9967 H       1  UNL1        0.0624
     41 C           7.1564    2.7011    7.4691 C.ar    1  UNL1       -0.0612
     42 H           7.8745    2.1993    8.1013 H       1  UNL1        0.0618
     43 C           5.8271    2.7692    7.8474 C.ar    1  UNL1       -0.0617
     44 H           5.5029    2.3219    8.7753 H       1  UNL1        0.0618
     45 C           4.9141    3.4133    7.0287 C.ar    1  UNL1       -0.0612
     46 H           3.8751    3.4722    7.3178 H       1  UNL1        0.0618
     47 C           5.3291    3.9830    5.8404 C.ar    1  UNL1       -0.0539
     48 H           4.6178    4.4969    5.2102 H       1  UNL1        0.0624
     49 C           5.9579    4.3312    0.6181 C.ar    1  UNL1       -0.0540
     50 H           5.1734    3.5947    0.7158 H       1  UNL1        0.0624
     51 C           6.2875    4.8429   -0.6049 C.ar    1  UNL1       -0.0612
     52 H           5.7617    4.5235   -1.4922 H       1  UNL1        0.0618
     53 C           7.3293    5.7752   -0.7144 C.ar    1  UNL1       -0.0611
     54 H           7.6043    6.1515   -1.6885 H       1  UNL1        0.0618
     55 C           8.0014    6.2043    0.3967 C.ar    1  UNL1       -0.0533
     56 H           8.8119    6.9089    0.2937 H       1  UNL1        0.0624
     57 C          10.6508    3.2255    4.3444 C.3     1  UNL1        0.0049
     58 H          11.5673    3.2400    3.7456 H       1  UNL1        0.0429
     59 H           9.8206    3.5465    3.7164 H       1  UNL1        0.0429
     60 H          10.4674    2.2000    4.6737 H       1  UNL1        0.0429
     61 C          11.7868    3.6580    6.4328 C.3     1  UNL1        0.0049
     62 H          11.5125    2.6940    6.8666 H       1  UNL1        0.0429
     63 H          11.8689    4.3896    7.2306 H       1  UNL1        0.0429
     64 H          12.7593    3.5604    5.9394 H       1  UNL1        0.0429
@<TRIPOS>BOND
     1    54    53    1
     2    52    51    1
     3    53    51   ar
     4    53    55   ar
     5    51    49   ar
     6    56    55    1
     7    55    33   ar
     8    49    50    1
     9    49    34   ar
    10    19    18    1
    11    18    16   ar
    12    18    20   ar
    13    17    16    1
    14    21    20    1
    15    16    14   ar
    16    20    12   ar
    17    33    34   ar
    18    33     6   ar
    19    34    35   ar
    20    14    15    1
    21    14    13   ar
    22    12    13   ar
    23    12    10   ar
    24    11    10    1
    25    13     7   ar
    26    10     9   ar
    27    32    31    1
    28     7     6   ar
    29     7     8   ar
    30     6     5   ar
    31     9     8   ar
    32     9    22    1
    33    31    22   ar
    34    31    29   ar
    35    35    36    1
    36    35    37   ar
    37    30    29    1
    38     8     3   ar
    39    22    23   ar
    40    29    27   ar
    41    59    57    1
    42    58    57    1
    43     3     1   ar
    44    23    24    1
    45    23    25   ar
    46    27    28    1
    47    27    25   ar
    48     5    37   ar
    49     5     2   ar
    50    37    38    1
    51    25    26    1
    52    57    60    1
    53    57     4    1
    54     2     1   ar
    55    48    47    1
    56     1     4    1
    57    38    47   ar
    58    38    39   ar
    59     4    61    1
    60    47    45   ar
    61    64    61    1
    62    40    39    1
    63    39    41   ar
    64    61    62    1
    65    61    63    1
    66    45    46    1
    67    45    43   ar
    68    41    43   ar
    69    41    42    1
    70    43    44    1
