@<TRIPOS>MOLECULE
1
 13 12 0 0 0
SMALL
GASTEIGER

@<TRIPOS>ATOM
      1 P           9.9567    0.4328    9.3494 P.3     1  UNL1       -0.1154
      2 C          11.0010    0.9433    7.9173 C.3     1  UNL1       -0.0447
      3 C          11.2278    0.4884   10.6861 C.3     1  UNL1       -0.0447
      4 C           9.9058   -1.3721    9.0319 C.3     1  UNL1       -0.0447
      5 H          10.4295    0.7684    7.0058 H       1  UNL1        0.0277
      6 H          11.9290    0.3702    7.8834 H       1  UNL1        0.0277
      7 H          11.2358    2.0061    7.9862 H       1  UNL1        0.0277
      8 H          11.5294    1.5209   10.8653 H       1  UNL1        0.0277
      9 H          12.1042   -0.0974   10.4071 H       1  UNL1        0.0277
     10 H          10.8022    0.0872   11.6045 H       1  UNL1        0.0277
     11 H           9.4404   -1.8675    9.8830 H       1  UNL1        0.0277
     12 H          10.9066   -1.7744    8.8641 H       1  UNL1        0.0277
     13 H           9.2842   -1.5389    8.1525 H       1  UNL1        0.0277
@<TRIPOS>BOND
     1     5     2    1
     2     6     2    1
     3     2     7    1
     4     2     1    1
     5    13     4    1
     6    12     4    1
     7     4     1    1
     8     4    11    1
     9     1     3    1
    10     9     3    1
    11     3     8    1
    12     3    10    1
