@<TRIPOS>MOLECULE
1
 40 42 0 0 0
SMALL
GASTEIGER

@<TRIPOS>ATOM
      1 P           7.1330    2.5401    5.7712 P.3     1  UNL1        0.1218
      2 N           8.4286    1.4517    5.8563 N.3     1  UNL1       -0.2567
      3 N           6.0478    1.6354    4.8601 N.3     1  UNL1       -0.2567
      4 N           6.4135    2.3871    7.3217 N.3     1  UNL1       -0.2567
      5 C           9.7714    1.9897    6.0330 C.3     1  UNL1        0.0050
      6 H           9.7390    3.0788    6.2755 H       1  UNL1        0.0430
      7 H          10.3711    1.8366    5.1200 H       1  UNL1        0.0430
      8 C          10.3768    1.1652    7.1649 C.3     1  UNL1       -0.0387
      9 H          10.0426    1.5372    8.1345 H       1  UNL1        0.0278
     10 H          11.4653    1.1671    7.1438 H       1  UNL1        0.0278
     11 C           9.7814   -0.2158    6.8880 C.3     1  UNL1       -0.0387
     12 H           9.7629   -0.8491    7.7730 H       1  UNL1        0.0278
     13 H          10.3660   -0.7174    6.1155 H       1  UNL1        0.0278
     14 C           8.3704    0.0854    6.3663 C.3     1  UNL1        0.0050
     15 H           8.0842   -0.6069    5.5676 H       1  UNL1        0.0430
     16 H           7.6246    0.0072    7.1631 H       1  UNL1        0.0430
     17 C           5.2237    0.5545    5.3791 C.3     1  UNL1        0.0050
     18 H           5.3189    0.5001    6.4629 H       1  UNL1        0.0430
     19 H           5.5689   -0.3958    4.9540 H       1  UNL1        0.0430
     20 C           3.7798    0.8421    4.9186 C.3     1  UNL1       -0.0387
     21 H           3.3865   -0.0073    4.3611 H       1  UNL1        0.0278
     22 H           3.1177    1.0210    5.7648 H       1  UNL1        0.0278
     23 C           3.8916    2.0808    4.0200 C.3     1  UNL1       -0.0387
     24 H           3.6094    2.9804    4.5682 H       1  UNL1        0.0278
     25 H           3.2677    2.0112    3.1317 H       1  UNL1        0.0278
     26 C           5.3800    2.1344    3.6751 C.3     1  UNL1        0.0050
     27 H           5.5910    1.4667    2.8289 H       1  UNL1        0.0430
     28 H           5.7246    3.1351    3.4225 H       1  UNL1        0.0430
     29 C           5.2340    3.2369    7.5046 C.3     1  UNL1        0.0050
     30 H           4.3918    2.8300    6.9450 H       1  UNL1        0.0430
     31 H           5.4279    4.2657    7.1666 H       1  UNL1        0.0430
     32 C           5.0245    3.2213    9.0105 C.3     1  UNL1       -0.0387
     33 H           4.6117    2.2601    9.3218 H       1  UNL1        0.0278
     34 H           4.3671    4.0188    9.3494 H       1  UNL1        0.0278
     35 C           6.4569    3.3770    9.5136 C.3     1  UNL1       -0.0387
     36 H           6.7420    4.4287    9.4936 H       1  UNL1        0.0278
     37 H           6.5949    2.9971   10.5244 H       1  UNL1        0.0278
     38 C           7.2824    2.5921    8.4872 C.3     1  UNL1        0.0050
     39 H           7.5721    1.6122    8.8818 H       1  UNL1        0.0430
     40 H           8.1964    3.1461    8.2290 H       1  UNL1        0.0430
@<TRIPOS>BOND
     1    27    26    1
     2    25    23    1
     3    28    26    1
     4    26    23    1
     5    26     3    1
     6    23    24    1
     7    23    20    1
     8    21    20    1
     9     3    17    1
    10     3     1    1
    11    20    17    1
    12    20    22    1
    13    19    17    1
    14     7     5    1
    15    17    18    1
    16    15    14    1
    17     1     2    1
    18     1     4    1
    19     2     5    1
    20     2    14    1
    21     5     6    1
    22     5     8    1
    23    13    11    1
    24    14    11    1
    25    14    16    1
    26    11     8    1
    27    11    12    1
    28    30    29    1
    29    10     8    1
    30     8     9    1
    31    31    29    1
    32     4    29    1
    33     4    38    1
    34    29    32    1
    35    40    38    1
    36    38    39    1
    37    38    35    1
    38    32    33    1
    39    32    34    1
    40    32    35    1
    41    36    35    1
    42    35    37    1
