@<TRIPOS>MOLECULE
1
 13 12 0 0 0
SMALL
GASTEIGER

@<TRIPOS>ATOM
      1 P           3.7397    7.3483    6.0622 P.3     1  UNL1       -0.1154
      2 C           3.9316    8.7688    4.8894 C.3     1  UNL1       -0.0447
      3 H           2.9613    9.2044    4.6777 H       1  UNL1        0.0277
      4 H           4.3945    8.4436    3.9594 H       1  UNL1        0.0277
      5 H           4.5617    9.5262    5.3477 H       1  UNL1        0.0277
      6 C           5.5563    7.0479    6.2601 C.3     1  UNL1       -0.0447
      7 H           5.9811    7.8336    6.8789 H       1  UNL1        0.0277
      8 H           6.0473    7.0480    5.2880 H       1  UNL1        0.0277
      9 H           5.7377    6.0992    6.7534 H       1  UNL1        0.0277
     10 C           3.4037    6.0139    4.8232 C.3     1  UNL1       -0.0447
     11 H           3.4308    5.0411    5.3085 H       1  UNL1        0.0277
     12 H           4.1443    6.0290    4.0245 H       1  UNL1        0.0277
     13 H           2.4110    6.1536    4.4046 H       1  UNL1        0.0277
@<TRIPOS>BOND
     1     4     2    1
     2    12    10    1
     3    13    10    1
     4     3     2    1
     5    10    11    1
     6    10     1    1
     7     2     5    1
     8     2     1    1
     9     8     6    1
    10     1     6    1
    11     6     9    1
    12     6     7    1
