@<TRIPOS>MOLECULE
1
 59 58 0 0 0
SMALL
GASTEIGER

@<TRIPOS>ATOM
      1 P           6.3251    2.8582    2.7390 P.3     1  UNL1        0.0000
      2 C           6.6906    1.3070    3.3145 C.3     1  UNL1        0.0000
      3 C           7.8748    0.6395    2.8479 C.2     1  UNL1        0.0000
      4 C           8.5375   -0.3192    3.5105 C.2     1  UNL1        0.0000
      5 N           7.4459    3.2448    1.5366 N.3     1  UNL1        0.0000
      6 SI          5.5159    0.4746    4.5590 Si      1  UNL1        0.0000
      7 C           3.7174    0.9331    4.1145 C.3     1  UNL1        0.0000
      8 C           5.5912   -1.4319    4.4156 C.3     1  UNL1        0.0000
      9 C           5.9706    1.0282    6.3304 C.3     1  UNL1        0.0000
     10 SI          8.9915    3.9336    2.0462 Si      1  UNL1        0.0000
     11 C           9.2728    3.5117    3.8817 C.3     1  UNL1        0.0000
     12 C          10.4018    3.1735    1.0162 C.3     1  UNL1        0.0000
     13 C           8.9540    5.8244    1.7881 C.3     1  UNL1        0.0000
     14 SI          6.9486    2.9149   -0.1279 Si      1  UNL1        0.0000
     15 C           7.7101    1.2873   -0.7748 C.3     1  UNL1        0.0000
     16 C           5.0547    2.7118   -0.1473 C.3     1  UNL1        0.0000
     17 C           7.4702    4.3585   -1.2531 C.3     1  UNL1        0.0000
     18 SI         10.1494   -1.1079    2.9378 Si      1  UNL1        0.0000
     19 C          10.2264   -2.8759    3.6518 C.3     1  UNL1        0.0000
     20 C          10.2471   -1.1877    1.0332 C.3     1  UNL1        0.0000
     21 C          11.6334   -0.0950    3.5946 C.3     1  UNL1        0.0000
     22 H           8.2842    1.0001    1.9144 H       1  UNL1        0.0000
     23 H           8.1429   -0.6311    4.4680 H       1  UNL1        0.0000
     24 H           3.4864    1.9673    4.3529 H       1  UNL1        0.0000
     25 H           3.0140    0.3108    4.6592 H       1  UNL1        0.0000
     26 H           3.5270    0.7898    3.0539 H       1  UNL1        0.0000
     27 H           4.6095   -1.8649    4.5795 H       1  UNL1        0.0000
     28 H           6.2613   -1.8702    5.1471 H       1  UNL1        0.0000
     29 H           5.9301   -1.7467    3.4340 H       1  UNL1        0.0000
     30 H           6.8561    0.5119    6.6895 H       1  UNL1        0.0000
     31 H           5.1647    0.8231    7.0280 H       1  UNL1        0.0000
     32 H           6.1797    2.0941    6.3685 H       1  UNL1        0.0000
     33 H          10.1058    4.0772    4.2877 H       1  UNL1        0.0000
     34 H           9.4863    2.4561    4.0209 H       1  UNL1        0.0000
     35 H           8.3928    3.7453    4.4780 H       1  UNL1        0.0000
     36 H          10.5198    2.1127    1.2104 H       1  UNL1        0.0000
     37 H          11.3387    3.6572    1.2701 H       1  UNL1        0.0000
     38 H          10.2446    3.3039   -0.0483 H       1  UNL1        0.0000
     39 H           8.9288    6.0857    0.7353 H       1  UNL1        0.0000
     40 H           9.8387    6.2838    2.2177 H       1  UNL1        0.0000
     41 H           8.0873    6.2822    2.2585 H       1  UNL1        0.0000
     42 H           8.7934    1.2959   -0.7253 H       1  UNL1        0.0000
     43 H           7.4348    1.1419   -1.8147 H       1  UNL1        0.0000
     44 H           7.3595    0.4224   -0.2197 H       1  UNL1        0.0000
     45 H           4.5449    3.6449    0.0809 H       1  UNL1        0.0000
     46 H           4.7364    1.9709    0.5841 H       1  UNL1        0.0000
     47 H           4.7082    2.3813   -1.1215 H       1  UNL1        0.0000
     48 H           7.1470    4.1651   -2.2706 H       1  UNL1        0.0000
     49 H           8.5467    4.4877   -1.2713 H       1  UNL1        0.0000
     50 H           7.0280    5.2988   -0.9426 H       1  UNL1        0.0000
     51 H          11.1504   -3.3756    3.3774 H       1  UNL1        0.0000
     52 H           9.4041   -3.4862    3.2909 H       1  UNL1        0.0000
     53 H          10.1727   -2.8633    4.7361 H       1  UNL1        0.0000
     54 H           9.3686   -1.6662    0.6118 H       1  UNL1        0.0000
     55 H          11.1159   -1.7523    0.7080 H       1  UNL1        0.0000
     56 H          10.3221   -0.1975    0.5955 H       1  UNL1        0.0000
     57 H          11.6100    0.9276    3.2294 H       1  UNL1        0.0000
     58 H          12.5791   -0.5324    3.2881 H       1  UNL1        0.0000
     59 H          11.6299   -0.0534    4.6798 H       1  UNL1        0.0000
@<TRIPOS>BOND
     1    48    17    1
     2    43    15    1
     3    49    17    1
     4    17    50    1
     5    17    14    1
     6    47    16    1
     7    15    42    1
     8    15    44    1
     9    15    14    1
    10    16    14    1
    11    16    45    1
    12    16    46    1
    13    14     5    1
    14    38    12    1
    15    56    20    1
    16    54    20    1
    17    55    20    1
    18    39    13    1
    19    12    36    1
    20    12    37    1
    21    12    10    1
    22    20    18    1
    23     5    10    1
    24     5     1    1
    25    13    10    1
    26    13    40    1
    27    13    41    1
    28    22     3    1
    29    10    11    1
    30     1     2    1
    31     3     2    1
    32     3     4    2
    33    18     4    1
    34    18    21    1
    35    18    19    1
    36    26     7    1
    37    57    21    1
    38    58    21    1
    39    52    19    1
    40     2     6    1
    41    51    19    1
    42    29     8    1
    43     4    23    1
    44    21    59    1
    45    19    53    1
    46    11    34    1
    47    11    33    1
    48    11    35    1
    49     7    24    1
    50     7     6    1
    51     7    25    1
    52     8     6    1
    53     8    27    1
    54     8    28    1
    55     6     9    1
    56     9    32    1
    57     9    30    1
    58     9    31    1
