@<TRIPOS>MOLECULE
1
 39 39 0 0 0
SMALL
GASTEIGER

@<TRIPOS>ATOM
      1 P           9.3667   16.6408    1.6178 P.3     1  UNL1        0.0000
      2 SI          8.3768   15.2789    4.2055 Si      1  UNL1        0.0000
      3 SI          7.4030   18.0366    3.0351 Si      1  UNL1        0.0000
      4 N           8.4326   16.5942    3.0248 N.3     1  UNL1        0.0000
      5 C          11.0272   16.2434    2.2229 C.ar    1  UNL1        0.0000
      6 C          11.9599   15.6454    1.3756 C.ar    1  UNL1        0.0000
      7 C          13.2633   15.4517    1.7887 C.ar    1  UNL1        0.0000
      8 C          13.6650   15.8748    3.0466 C.ar    1  UNL1        0.0000
      9 C          12.7579   16.5111    3.8796 C.ar    1  UNL1        0.0000
     10 C          11.4539   16.7054    3.4680 C.ar    1  UNL1        0.0000
     11 C           6.5746   14.6898    4.4184 C.3     1  UNL1        0.0000
     12 C           9.4236   13.8076    3.6237 C.3     1  UNL1        0.0000
     13 C           9.0305   15.9175    5.8862 C.3     1  UNL1        0.0000
     14 C           6.1770   18.0519    4.4882 C.3     1  UNL1        0.0000
     15 C           6.4397   18.0905    1.3917 C.3     1  UNL1        0.0000
     16 C           8.5734   19.5378    3.1879 C.3     1  UNL1        0.0000
     17 H          11.6423   15.3193    0.3920 H       1  UNL1        0.0000
     18 H          13.9718   14.9692    1.1306 H       1  UNL1        0.0000
     19 H          14.6831   15.7178    3.3712 H       1  UNL1        0.0000
     20 H          13.0739   16.8615    4.8521 H       1  UNL1        0.0000
     21 H          10.7467   17.2159    4.1033 H       1  UNL1        0.0000
     22 H           5.9922   14.8211    3.5135 H       1  UNL1        0.0000
     23 H           6.0702   15.2184    5.2191 H       1  UNL1        0.0000
     24 H           6.5559   13.6333    4.6662 H       1  UNL1        0.0000
     25 H           9.1184   13.4936    2.6312 H       1  UNL1        0.0000
     26 H           9.2931   12.9633    4.2931 H       1  UNL1        0.0000
     27 H          10.4822   14.0388    3.5865 H       1  UNL1        0.0000
     28 H           8.5245   15.4111    6.7018 H       1  UNL1        0.0000
     29 H           8.8673   16.9834    6.0088 H       1  UNL1        0.0000
     30 H          10.0934   15.7301    5.9996 H       1  UNL1        0.0000
     31 H           6.6422   17.7759    5.4267 H       1  UNL1        0.0000
     32 H           5.3447   17.3796    4.3177 H       1  UNL1        0.0000
     33 H           5.7709   19.0515    4.6017 H       1  UNL1        0.0000
     34 H           7.0259   18.5628    0.6104 H       1  UNL1        0.0000
     35 H           5.5110   18.6433    1.4877 H       1  UNL1        0.0000
     36 H           6.2012   17.0844    1.0553 H       1  UNL1        0.0000
     37 H           8.0636   20.4629    2.9391 H       1  UNL1        0.0000
     38 H           9.4241   19.4322    2.5194 H       1  UNL1        0.0000
     39 H           8.9598   19.6403    4.1974 H       1  UNL1        0.0000
@<TRIPOS>BOND
     1    17     6    1
     2    34    15    1
     3    36    15    1
     4    18     7    1
     5     6     7   ar
     6     6     5   ar
     7    15    35    1
     8    15     3    1
     9     1     5    1
    10     1     4    1
    11     7     8   ar
    12     5    10   ar
    13    38    16    1
    14    25    12    1
    15    37    16    1
    16     4     3    1
    17     4     2    1
    18     3    16    1
    19     3    14    1
    20     8    19    1
    21     8     9   ar
    22    16    39    1
    23    10     9   ar
    24    10    21    1
    25    22    11    1
    26    27    12    1
    27    12     2    1
    28    12    26    1
    29     9    20    1
    30     2    11    1
    31     2    13    1
    32    32    14    1
    33    11    24    1
    34    11    23    1
    35    14    33    1
    36    14    31    1
    37    13    30    1
    38    13    29    1
    39    13    28    1
