@<TRIPOS>MOLECULE
1
 19 18 0 0 0
SMALL
GASTEIGER

@<TRIPOS>ATOM
      1 P          10.5810   10.6367   11.1238 P.3     1  UNL1        0.0000
      2 N          10.1969   12.8983    9.1835 N.4     1  UNL1        0.0000
      3 C           8.9355   13.1658    9.8733 C.3     1  UNL1        0.0000
      4 C          10.7604   14.1674    8.7172 C.3     1  UNL1        0.0000
      5 C           9.9430   12.0449    8.0222 C.3     1  UNL1        0.0000
      6 B          11.2919   12.1971   10.1951 B       1  UNL1        0.0000
      7 H           9.1283   13.7617   10.7629 H       1  UNL1        0.0000
      8 H           8.4780   12.2263   10.1785 H       1  UNL1        0.0000
      9 H           8.2432   13.7052    9.2216 H       1  UNL1        0.0000
     10 H          10.0876   14.6520    8.0052 H       1  UNL1        0.0000
     11 H          11.7200   13.9858    8.2389 H       1  UNL1        0.0000
     12 H          10.9232   14.8295    9.5642 H       1  UNL1        0.0000
     13 H           9.2134   12.5069    7.3523 H       1  UNL1        0.0000
     14 H           9.5631   11.0794    8.3517 H       1  UNL1        0.0000
     15 H          10.8715   11.8819    7.4796 H       1  UNL1        0.0000
     16 H          11.5728   13.0196   11.0090 H       1  UNL1        0.0000
     17 H          12.2200   11.9019    9.5113 H       1  UNL1        0.0000
     18 H           9.5923   10.1655   10.2462 H       1  UNL1        0.0000
     19 H           9.6323   11.2564   11.9468 H       1  UNL1        0.0000
@<TRIPOS>BOND
     1    13     5    1
     2    15     5    1
     3    10     4    1
     4     5    14    1
     5     5     2    1
     6    11     4    1
     7     4     2    1
     8     4    12    1
     9     2     3    1
    10     2     6    1
    11     9     3    1
    12    17     6    1
    13     3     8    1
    14     3     7    1
    15     6    16    1
    16     6     1    1
    17    18     1    1
    18     1    19    1
