@<TRIPOS>MOLECULE
1
 45 46 0 0 0
SMALL
GASTEIGER

@<TRIPOS>ATOM
      1 P          -0.8613   -4.5461   -6.1568 P.3     1  UNL1        0.0000
      2 SI         -0.2293   -3.8696   -3.2464 Si      1  UNL1        0.0000
      3 SI          2.0299   -3.6577   -5.7072 Si      1  UNL1        0.0000
      4 O          -2.2556   -3.7012   -6.3328 O.3     1  UNL1        0.0000
      5 N           0.0072   -1.9156   -8.5921 N.ar    1  UNL1        0.0000
      6 C          -1.4221   -3.4646   -7.4896 C.3     1  UNL1        0.0000
      7 C          -0.8882   -2.0924   -7.6232 C.ar    1  UNL1        0.0000
      8 C          -1.3048   -1.0518   -6.7938 C.ar    1  UNL1        0.0000
      9 H          -2.0556   -1.2350   -6.0409 H       1  UNL1        0.0000
     10 C          -0.7582    0.2050   -6.9821 C.ar    1  UNL1        0.0000
     11 H          -1.0638    1.0328   -6.3585 H       1  UNL1        0.0000
     12 C           0.1822    0.3842   -7.9852 C.ar    1  UNL1        0.0000
     13 H           0.6338    1.3473   -8.1630 H       1  UNL1        0.0000
     14 C           0.5230   -0.7125   -8.7625 C.ar    1  UNL1        0.0000
     15 H           1.2470   -0.6304   -9.5625 H       1  UNL1        0.0000
     16 C          -1.9139   -4.0706   -8.7810 C.3     1  UNL1        0.0000
     17 H          -2.8348   -3.5796   -9.0954 H       1  UNL1        0.0000
     18 H          -2.1139   -5.1345   -8.6530 H       1  UNL1        0.0000
     19 H          -1.1582   -3.9270   -9.5496 H       1  UNL1        0.0000
     20 C           0.2092   -3.5333   -5.0879 C.3     1  UNL1        0.0000
     21 H          -0.1018   -2.5018   -5.2724 H       1  UNL1        0.0000
     22 C          -2.1273   -3.7787   -3.0801 C.3     1  UNL1        0.0000
     23 H          -2.4835   -2.7537   -3.1349 H       1  UNL1        0.0000
     24 H          -2.4709   -4.1932   -2.1369 H       1  UNL1        0.0000
     25 H          -2.6132   -4.3312   -3.8812 H       1  UNL1        0.0000
     26 C           0.4182   -5.5446   -2.6101 C.3     1  UNL1        0.0000
     27 H          -0.1991   -5.9017   -1.7914 H       1  UNL1        0.0000
     28 H           1.4335   -5.4652   -2.2376 H       1  UNL1        0.0000
     29 H           0.4059   -6.3075   -3.3838 H       1  UNL1        0.0000
     30 C           0.5676   -2.4607   -2.2361 C.3     1  UNL1        0.0000
     31 H           1.6468   -2.4537   -2.3455 H       1  UNL1        0.0000
     32 H           0.3461   -2.5771   -1.1810 H       1  UNL1        0.0000
     33 H           0.2007   -1.4860   -2.5410 H       1  UNL1        0.0000
     34 C           3.1660   -4.6445   -4.5416 C.3     1  UNL1        0.0000
     35 H           3.1914   -4.2144   -3.5462 H       1  UNL1        0.0000
     36 H           4.1803   -4.6318   -4.9276 H       1  UNL1        0.0000
     37 H           2.8684   -5.6822   -4.4493 H       1  UNL1        0.0000
     38 C           2.6644   -1.8592   -5.7900 C.3     1  UNL1        0.0000
     39 H           3.7113   -1.8310   -6.0725 H       1  UNL1        0.0000
     40 H           2.5710   -1.3607   -4.8303 H       1  UNL1        0.0000
     41 H           2.1138   -1.2744   -6.5204 H       1  UNL1        0.0000
     42 C           2.0387   -4.4280   -7.4477 C.3     1  UNL1        0.0000
     43 H           1.6402   -5.4408   -7.4325 H       1  UNL1        0.0000
     44 H           3.0432   -4.4802   -7.8574 H       1  UNL1        0.0000
     45 H           1.4340   -3.8399   -8.1347 H       1  UNL1        0.0000
@<TRIPOS>BOND
     1    15    14    1
     2    19    16    1
     3    17    16    1
     4    16    18    1
     5    16     6    1
     6    14     5   ar
     7    14    12   ar
     8     5     7   ar
     9    13    12    1
    10    45    42    1
    11    12    10   ar
    12    44    42    1
    13     7     6    1
    14     7     8   ar
    15     6     4    1
    16     6     1    1
    17    42    43    1
    18    42     3    1
    19    10     8   ar
    20    10    11    1
    21     8     9    1
    22    41    38    1
    23     4     1    1
    24     1    20    1
    25    39    38    1
    26    38     3    1
    27    38    40    1
    28     3    20    1
    29     3    34    1
    30    21    20    1
    31    20     2    1
    32    36    34    1
    33    34    37    1
    34    34    35    1
    35    25    22    1
    36    29    26    1
    37     2    22    1
    38     2    26    1
    39     2    30    1
    40    23    22    1
    41    22    24    1
    42    26    28    1
    43    26    27    1
    44    33    30    1
    45    31    30    1
    46    30    32    1
