@<TRIPOS>MOLECULE
1
 42 43 0 0 0
SMALL
GASTEIGER

@<TRIPOS>ATOM
      1 P           3.6252   -3.9320   -6.6499 P.3     1  UNL1        0.0000
      2 SI          5.8030   -1.7972   -6.4827 Si      1  UNL1        0.0000
      3 SI          6.4642   -5.1171   -6.5469 Si      1  UNL1        0.0000
      4 O           3.6466   -4.9632   -7.9188 O.3     1  UNL1        0.0000
      5 N           2.3484   -1.9150   -9.5012 N.ar    1  UNL1        0.0000
      6 C           3.5768   -3.6153   -8.4128 C.3     1  UNL1        0.0000
      7 H           4.4888   -3.2678   -8.8871 H       1  UNL1        0.0000
      8 C           2.3180   -3.1512   -9.0058 C.ar    1  UNL1        0.0000
      9 C           1.1594   -3.9248   -8.9814 C.ar    1  UNL1        0.0000
     10 H           1.1981   -4.9365   -8.6095 H       1  UNL1        0.0000
     11 C          -0.0096   -3.3772   -9.4788 C.ar    1  UNL1        0.0000
     12 H          -0.9258   -3.9496   -9.4748 H       1  UNL1        0.0000
     13 C           0.0156   -2.0822   -9.9735 C.ar    1  UNL1        0.0000
     14 H          -0.8765   -1.6134  -10.3571 H       1  UNL1        0.0000
     15 C           1.2241   -1.4026   -9.9677 C.ar    1  UNL1        0.0000
     16 H           1.3023   -0.3939  -10.3513 H       1  UNL1        0.0000
     17 C           5.3274   -3.6298   -6.1038 C.3     1  UNL1        0.0000
     18 H           5.2304   -3.6689   -5.0126 H       1  UNL1        0.0000
     19 C           4.2325   -0.7693   -6.8141 C.3     1  UNL1        0.0000
     20 H           4.4363    0.2945   -6.7320 H       1  UNL1        0.0000
     21 H           3.4481   -1.0041   -6.0968 H       1  UNL1        0.0000
     22 H           3.8273   -0.9478   -7.8074 H       1  UNL1        0.0000
     23 C           6.9733   -1.6534   -7.9810 C.3     1  UNL1        0.0000
     24 H           7.2749   -0.6188   -8.1082 H       1  UNL1        0.0000
     25 H           6.5035   -1.9663   -8.9078 H       1  UNL1        0.0000
     26 H           7.8753   -2.2407   -7.8453 H       1  UNL1        0.0000
     27 C           6.6825   -1.1551   -4.9172 C.3     1  UNL1        0.0000
     28 H           7.0514   -0.1462   -5.0693 H       1  UNL1        0.0000
     29 H           7.5307   -1.7775   -4.6505 H       1  UNL1        0.0000
     30 H           6.0107   -1.1311   -4.0643 H       1  UNL1        0.0000
     31 C           5.5789   -6.6529   -5.8460 C.3     1  UNL1        0.0000
     32 H           6.0622   -7.5770   -6.1484 H       1  UNL1        0.0000
     33 H           4.5507   -6.6875   -6.2000 H       1  UNL1        0.0000
     34 H           5.5531   -6.6388   -4.7596 H       1  UNL1        0.0000
     35 C           6.8014   -5.3238   -8.4111 C.3     1  UNL1        0.0000
     36 H           5.8954   -5.5765   -8.9512 H       1  UNL1        0.0000
     37 H           7.5108   -6.1310   -8.5686 H       1  UNL1        0.0000
     38 H           7.2232   -4.4300   -8.8583 H       1  UNL1        0.0000
     39 C           8.1139   -4.8348   -5.6348 C.3     1  UNL1        0.0000
     40 H           8.6331   -3.9569   -6.0034 H       1  UNL1        0.0000
     41 H           8.7710   -5.6859   -5.7732 H       1  UNL1        0.0000
     42 H           7.9661   -4.7067   -4.5678 H       1  UNL1        0.0000
@<TRIPOS>BOND
     1    14    13    1
     2    16    15    1
     3    13    15   ar
     4    13    11   ar
     5    15     5   ar
     6     5     8   ar
     7    11    12    1
     8    11     9   ar
     9     8     9   ar
    10     8     6    1
    11     9    10    1
    12    36    35    1
    13    25    23    1
    14     7     6    1
    15    38    35    1
    16    37    35    1
    17     6     4    1
    18     6     1    1
    19    35     3    1
    20    24    23    1
    21    23    26    1
    22    23     2    1
    23     4     1    1
    24    22    19    1
    25    19    20    1
    26    19     2    1
    27    19    21    1
    28     1    17    1
    29     3    17    1
    30     3    31    1
    31     3    39    1
    32     2    17    1
    33     2    27    1
    34    33    31    1
    35    32    31    1
    36    17    18    1
    37    40    39    1
    38    31    34    1
    39    41    39    1
    40    39    42    1
    41    28    27    1
    42    27    29    1
    43    27    30    1
