@<TRIPOS>MOLECULE
1
 28 30 0 0 0
SMALL
GASTEIGER

@<TRIPOS>ATOM
      1 P          -3.3123    3.6841   22.7898 P.3     1  UNL1        0.2215
      2 N          -4.7494    4.6292   22.6687 N.ar    1  UNL1       -0.2981
      3 N          -3.5122    3.1341   24.3877 N.ar    1  UNL1       -0.2981
      4 N          -2.1873    4.9739   22.9735 N.ar    1  UNL1       -0.2981
      5 C          -5.9290    4.5847   23.3668 C.ar    1  UNL1        0.0115
      6 C          -6.8277    5.4115   22.7641 C.ar    1  UNL1       -0.0438
      7 C          -6.1923    5.9703   21.6314 C.ar    1  UNL1       -0.0438
      8 C          -4.9305    5.4618   21.5915 C.ar    1  UNL1        0.0115
      9 C          -3.9021    3.7621   25.5466 C.ar    1  UNL1        0.0115
     10 C          -3.9444    2.8427   26.5498 C.ar    1  UNL1       -0.0438
     11 C          -3.5753    1.5927   25.9955 C.ar    1  UNL1       -0.0438
     12 C          -3.3228    1.8027   24.6761 C.ar    1  UNL1        0.0115
     13 C          -1.8357    5.7868   24.0190 C.ar    1  UNL1        0.0115
     14 C          -0.9411    6.7132   23.5751 C.ar    1  UNL1       -0.0438
     15 C          -0.7301    6.4710   22.1983 C.ar    1  UNL1       -0.0438
     16 C          -1.4992    5.3997   21.8630 C.ar    1  UNL1        0.0115
     17 H          -6.0448    3.9666   24.2346 H       1  UNL1        0.0813
     18 H          -7.8313    5.6014   23.0902 H       1  UNL1        0.0633
     19 H          -6.6232    6.6649   20.9372 H       1  UNL1        0.0633
     20 H          -4.1310    5.6404   20.8975 H       1  UNL1        0.0813
     21 H          -4.1429    4.8071   25.5658 H       1  UNL1        0.0813
     22 H          -4.2105    3.0300   27.5720 H       1  UNL1        0.0633
     23 H          -3.5112    0.6601   26.5211 H       1  UNL1        0.0633
     24 H          -3.0198    1.1256   23.8941 H       1  UNL1        0.0813
     25 H          -2.2149    5.6292   25.0077 H       1  UNL1        0.0813
     26 H          -0.4757    7.4786   24.1646 H       1  UNL1        0.0633
     27 H          -0.0833    7.0261   21.5473 H       1  UNL1        0.0633
     28 H          -1.6176    4.8821   20.9228 H       1  UNL1        0.0813
@<TRIPOS>BOND
     1    20     8    1
     2    28    16    1
     3    19     7    1
     4    27    15    1
     5     8     7   ar
     6     8     2   ar
     7     7     6   ar
     8    16    15   ar
     9    16     4   ar
    10    15    14   ar
    11     2     1    1
    12     2     5   ar
    13     6    18    1
    14     6     5   ar
    15     1     4    1
    16     1     3    1
    17     4    13   ar
    18     5    17    1
    19    14    13   ar
    20    14    26    1
    21    24    12    1
    22    13    25    1
    23     3    12   ar
    24     3     9   ar
    25    12    11   ar
    26     9    21    1
    27     9    10   ar
    28    11    23    1
    29    11    10   ar
    30    10    22    1
