@<TRIPOS>MOLECULE
1
 25 24 0 0 0
SMALL
GASTEIGER

@<TRIPOS>ATOM
      1 P           8.6414    3.0761   -0.9145 P.3     1  UNL1       -0.1038
      2 C           7.8338    3.2103   -2.5612 C.3     1  UNL1       -0.0438
      3 C           7.6959    4.3590    0.0587 C.3     1  UNL1       -0.0261
      4 C           6.2322    3.9383    0.1495 C.3     1  UNL1       -0.0587
      5 C           7.8068    5.7920   -0.4569 C.3     1  UNL1       -0.0587
      6 C          10.2865    3.8840   -1.2515 C.3     1  UNL1       -0.0261
      7 C          10.9924    4.2138    0.0568 C.3     1  UNL1       -0.0587
      8 C          11.1372    2.9123   -2.0586 C.3     1  UNL1       -0.0587
      9 H           7.8809    4.2320   -2.9347 H       1  UNL1        0.0278
     10 H           6.7960    2.9033   -2.4570 H       1  UNL1        0.0278
     11 H           8.3220    2.5467   -3.2696 H       1  UNL1        0.0278
     12 H           8.1305    4.2980    1.0624 H       1  UNL1        0.0343
     13 H           5.7071    4.1465   -0.7798 H       1  UNL1        0.0236
     14 H           5.7295    4.4759    0.9505 H       1  UNL1        0.0236
     15 H           6.1708    2.8706    0.3588 H       1  UNL1        0.0236
     16 H           7.3876    5.8839   -1.4563 H       1  UNL1        0.0236
     17 H           8.8352    6.1417   -0.4762 H       1  UNL1        0.0236
     18 H           7.2418    6.4524    0.1995 H       1  UNL1        0.0236
     19 H          10.1155    4.7966   -1.8347 H       1  UNL1        0.0343
     20 H          11.9845    4.6168   -0.1391 H       1  UNL1        0.0236
     21 H          11.0983    3.3012    0.6411 H       1  UNL1        0.0236
     22 H          10.4375    4.9394    0.6466 H       1  UNL1        0.0236
     23 H          12.1386    3.3125   -2.2059 H       1  UNL1        0.0236
     24 H          10.7029    2.7181   -3.0367 H       1  UNL1        0.0236
     25 H          11.2135    1.9749   -1.5099 H       1  UNL1        0.0236
@<TRIPOS>BOND
     1    11     2    1
     2    24     8    1
     3     9     2    1
     4     2    10    1
     5     2     1    1
     6    23     8    1
     7     8    25    1
     8     8     6    1
     9    19     6    1
    10    16     5    1
    11     6     1    1
    12     6     7    1
    13     1     3    1
    14    13     4    1
    15    17     5    1
    16     5     3    1
    17     5    18    1
    18    20     7    1
    19     7    21    1
    20     7    22    1
    21     3     4    1
    22     3    12    1
    23     4    15    1
    24     4    14    1
