@<TRIPOS>MOLECULE
1
 34 36 0 0 0
SMALL
GASTEIGER

@<TRIPOS>ATOM
      1 P           4.2019    2.2335    1.9207 P.3     1  UNL1       -0.0131
      2 C           2.5881    1.8674    2.7039 C.ar    1  UNL1       -0.0147
      3 C           1.4582    2.2052    1.9649 C.ar    1  UNL1       -0.0535
      4 C           0.1996    1.8479    2.4091 C.ar    1  UNL1       -0.0611
      5 C           0.0568    1.1546    3.5997 C.ar    1  UNL1       -0.0617
      6 C           1.1781    0.8139    4.3374 C.ar    1  UNL1       -0.0611
      7 C           2.4420    1.1560    3.8899 C.ar    1  UNL1       -0.0535
      8 C           4.2675    0.6705    0.9680 C.ar    1  UNL1       -0.0147
      9 C           4.0983    0.7249   -0.4098 C.ar    1  UNL1       -0.0535
     10 C           4.0833   -0.4400   -1.1566 C.ar    1  UNL1       -0.0611
     11 C           4.2356   -1.6656   -0.5305 C.ar    1  UNL1       -0.0617
     12 C           4.3868   -1.7257    0.8463 C.ar    1  UNL1       -0.0611
     13 C           4.3935   -0.5650    1.5966 C.ar    1  UNL1       -0.0535
     14 C           5.3953    1.9362    3.2651 C.ar    1  UNL1       -0.0147
     15 C           6.5760    1.2325    3.0447 C.ar    1  UNL1       -0.0535
     16 C           7.5313    1.1443    4.0409 C.ar    1  UNL1       -0.0611
     17 C           7.3242    1.7648    5.2625 C.ar    1  UNL1       -0.0617
     18 C           6.1604    2.4848    5.4827 C.ar    1  UNL1       -0.0611
     19 C           5.2075    2.5790    4.4866 C.ar    1  UNL1       -0.0535
     20 H           1.5870    2.7608    1.0457 H       1  UNL1        0.0624
     21 H          -0.6696    2.1131    1.8256 H       1  UNL1        0.0618
     22 H          -0.9258    0.8764    3.9522 H       1  UNL1        0.0618
     23 H           1.0698    0.2688    5.2645 H       1  UNL1        0.0618
     24 H           3.3079    0.8700    4.4702 H       1  UNL1        0.0624
     25 H           3.9685    1.6908   -0.8846 H       1  UNL1        0.0624
     26 H           3.9516   -0.3916   -2.2279 H       1  UNL1        0.0618
     27 H           4.2299   -2.5759   -1.1122 H       1  UNL1        0.0618
     28 H           4.4950   -2.6827    1.3362 H       1  UNL1        0.0618
     29 H           4.5005   -0.6145    2.6715 H       1  UNL1        0.0624
     30 H           6.7415    0.7498    2.0905 H       1  UNL1        0.0624
     31 H           8.4431    0.5917    3.8634 H       1  UNL1        0.0618
     32 H           8.0718    1.6924    6.0389 H       1  UNL1        0.0618
     33 H           5.9994    2.9800    6.4295 H       1  UNL1        0.0618
     34 H           4.3056    3.1561    4.6432 H       1  UNL1        0.0624
@<TRIPOS>BOND
     1    26    10    1
     2    10    11   ar
     3    10     9   ar
     4    27    11    1
     5    25     9    1
     6    11    12   ar
     7     9     8   ar
     8    12    28    1
     9    12    13   ar
    10     8    13   ar
    11     8     1    1
    12    20     3    1
    13    13    29    1
    14    21     4    1
    15     1     2    1
    16     1    14    1
    17     3     4   ar
    18     3     2   ar
    19    30    15    1
    20     4     5   ar
    21     2     7   ar
    22    15    14   ar
    23    15    16   ar
    24    14    19   ar
    25     5    22    1
    26     5     6   ar
    27    31    16    1
    28     7     6   ar
    29     7    24    1
    30    16    17   ar
    31     6    23    1
    32    19    34    1
    33    19    18   ar
    34    17    18   ar
    35    17    32    1
    36    18    33    1
