@<TRIPOS>MOLECULE
1
 34 36 0 0 0
SMALL
GASTEIGER

@<TRIPOS>ATOM
      1 P           3.7521    5.6443    2.0124 P.3     1  UNL1       -0.0131
      2 C           1.9863    5.4634    2.4493 C.ar    1  UNL1       -0.0147
      3 C           0.9698    5.8551    1.5853 C.ar    1  UNL1       -0.0535
      4 C          -0.3530    5.6261    1.9188 C.ar    1  UNL1       -0.0611
      5 C          -0.6760    5.0133    3.1175 C.ar    1  UNL1       -0.0617
      6 C           0.3314    4.6158    3.9811 C.ar    1  UNL1       -0.0611
      7 C           1.6538    4.8268    3.6428 C.ar    1  UNL1       -0.0535
      8 C           3.7840    7.2650    1.1558 C.ar    1  UNL1       -0.0147
      9 C           3.3856    7.2782   -0.1809 C.ar    1  UNL1       -0.0535
     10 C           3.4090    8.4520   -0.9096 C.ar    1  UNL1       -0.0611
     11 C           3.8520    9.6263   -0.3216 C.ar    1  UNL1       -0.0617
     12 C           4.2764    9.6146    0.9954 C.ar    1  UNL1       -0.0611
     13 C           4.2444    8.4430    1.7333 C.ar    1  UNL1       -0.0535
     14 C           4.4377    6.1009    3.6471 C.ar    1  UNL1       -0.0147
     15 C           3.7469    6.9451    4.5157 C.ar    1  UNL1       -0.0535
     16 C           4.3048    7.2971    5.7299 C.ar    1  UNL1       -0.0611
     17 C           5.5555    6.8171    6.0901 C.ar    1  UNL1       -0.0617
     18 C           6.2466    5.9798    5.2320 C.ar    1  UNL1       -0.0611
     19 C           5.6872    5.6238    4.0171 C.ar    1  UNL1       -0.0535
     20 H           1.2113    6.3442    0.6547 H       1  UNL1        0.0624
     21 H          -1.1354    5.9305    1.2388 H       1  UNL1        0.0618
     22 H          -1.7101    4.8436    3.3788 H       1  UNL1        0.0618
     23 H           0.0863    4.1319    4.9154 H       1  UNL1        0.0618
     24 H           2.4391    4.5045    4.3132 H       1  UNL1        0.0624
     25 H           3.0802    6.3473   -0.6450 H       1  UNL1        0.0624
     26 H           3.0925    8.4513   -1.9430 H       1  UNL1        0.0618
     27 H           3.8781   10.5434   -0.8916 H       1  UNL1        0.0618
     28 H           4.6395   10.5231    1.4545 H       1  UNL1        0.0618
     29 H           4.5887    8.4539    2.7572 H       1  UNL1        0.0624
     30 H           2.7722    7.3202    4.2338 H       1  UNL1        0.0624
     31 H           3.7648    7.9512    6.3993 H       1  UNL1        0.0618
     32 H           5.9872    7.0964    7.0401 H       1  UNL1        0.0618
     33 H           7.2198    5.6004    5.5086 H       1  UNL1        0.0618
     34 H           6.2150    4.9574    3.3490 H       1  UNL1        0.0624
@<TRIPOS>BOND
     1    26    10    1
     2    10    11   ar
     3    10     9   ar
     4    27    11    1
     5    25     9    1
     6    11    12   ar
     7     9     8   ar
     8    20     3    1
     9    12    28    1
    10    12    13   ar
    11     8    13   ar
    12     8     1    1
    13    21     4    1
    14     3     4   ar
    15     3     2   ar
    16    13    29    1
    17     4     5   ar
    18     1     2    1
    19     1    14    1
    20     2     7   ar
    21     5    22    1
    22     5     6   ar
    23    34    19    1
    24     7     6   ar
    25     7    24    1
    26    14    19   ar
    27    14    15   ar
    28     6    23    1
    29    19    18   ar
    30    30    15    1
    31    15    16   ar
    32    18    33    1
    33    18    17   ar
    34    16    17   ar
    35    16    31    1
    36    17    32    1
