@<TRIPOS>MOLECULE
1
 34 36 0 0 0
SMALL
GASTEIGER

@<TRIPOS>ATOM
      1 P          10.3779    2.4330    8.7630 P.3     1  UNL1       -0.0131
      2 C          10.9415    4.1660    8.9410 C.ar    1  UNL1       -0.0147
      3 C          10.4476    5.0907    8.0273 C.ar    1  UNL1       -0.0535
      4 H           9.7569    4.7556    7.2568 H       1  UNL1        0.0624
      5 C          10.8100    6.4227    8.1101 C.ar    1  UNL1       -0.0611
      6 H          10.4230    7.1358    7.3960 H       1  UNL1        0.0618
      7 C          11.6682    6.8402    9.1133 C.ar    1  UNL1       -0.0617
      8 H          11.9596    7.8787    9.1787 H       1  UNL1        0.0618
      9 C          12.1433    5.9285   10.0432 C.ar    1  UNL1       -0.0611
     10 H          12.7994    6.2598   10.8355 H       1  UNL1        0.0618
     11 C          11.7772    4.5977    9.9662 C.ar    1  UNL1       -0.0535
     12 H          12.1378    3.8919   10.7010 H       1  UNL1        0.0624
     13 C          11.8419    1.4526    9.2285 C.ar    1  UNL1       -0.0147
     14 C          13.1499    1.8936    9.0633 C.ar    1  UNL1       -0.0535
     15 H          13.3430    2.8891    8.6890 H       1  UNL1        0.0624
     16 C          14.2080    1.0588    9.3829 C.ar    1  UNL1       -0.0611
     17 H          15.2220    1.4096    9.2550 H       1  UNL1        0.0618
     18 C          13.9706   -0.2183    9.8634 C.ar    1  UNL1       -0.0617
     19 H          14.7996   -0.8621   10.1190 H       1  UNL1        0.0618
     20 C          12.6672   -0.6731   10.0055 C.ar    1  UNL1       -0.0611
     21 H          12.4802   -1.6740   10.3667 H       1  UNL1        0.0618
     22 C          11.6095    0.1538    9.6796 C.ar    1  UNL1       -0.0535
     23 H          10.5867   -0.1879    9.7705 H       1  UNL1        0.0624
     24 C           9.4010    2.3577   10.3128 C.ar    1  UNL1       -0.0147
     25 C           9.9600    2.0772   11.5559 C.ar    1  UNL1       -0.0535
     26 H          11.0054    1.8154   11.6390 H       1  UNL1        0.0624
     27 C           9.1730    2.1192   12.6926 C.ar    1  UNL1       -0.0611
     28 H           9.6111    1.8949   13.6549 H       1  UNL1        0.0618
     29 C           7.8304    2.4489   12.6032 C.ar    1  UNL1       -0.0617
     30 H           7.2217    2.4790   13.4953 H       1  UNL1        0.0618
     31 C           7.2730    2.7403   11.3694 C.ar    1  UNL1       -0.0611
     32 H           6.2273    3.0009   11.2954 H       1  UNL1        0.0618
     33 C           8.0548    2.6970   10.2296 C.ar    1  UNL1       -0.0535
     34 H           7.6289    2.9183    9.2612 H       1  UNL1        0.0624
@<TRIPOS>BOND
     1     4     3    1
     2     6     5    1
     3     3     5   ar
     4     3     2   ar
     5     5     7   ar
     6    15    14    1
     7     1     2    1
     8     1    13    1
     9     1    24    1
    10     2    11   ar
    11    14    13   ar
    12    14    16   ar
    13     7     8    1
    14     7     9   ar
    15    13    22   ar
    16    17    16    1
    17    34    33    1
    18    16    18   ar
    19    22    23    1
    20    22    20   ar
    21    18    20   ar
    22    18    19    1
    23    11     9   ar
    24    11    12    1
    25    20    21    1
    26     9    10    1
    27    33    24   ar
    28    33    31   ar
    29    24    25   ar
    30    32    31    1
    31    31    29   ar
    32    25    26    1
    33    25    27   ar
    34    29    27   ar
    35    29    30    1
    36    27    28    1
