@<TRIPOS>MOLECULE
1
 34 36 0 0 0
SMALL
GASTEIGER

@<TRIPOS>ATOM
      1 P           6.1603    8.1020    0.8232 P.3     1  UNL1       -0.0131
      2 C           7.3288    7.4070    2.0519 C.ar    1  UNL1       -0.0147
      3 C           7.1428    7.7257    3.3914 C.ar    1  UNL1       -0.0535
      4 H           6.2934    8.3313    3.6672 H       1  UNL1        0.0624
      5 C           8.0155    7.2505    4.3532 C.ar    1  UNL1       -0.0611
      6 H           7.8624    7.5022    5.3929 H       1  UNL1        0.0618
      7 C           9.0815    6.4471    3.9837 C.ar    1  UNL1       -0.0617
      8 H           9.7629    6.0703    4.7329 H       1  UNL1        0.0618
      9 C           9.2711    6.1231    2.6500 C.ar    1  UNL1       -0.0611
     10 H          10.1011    5.4946    2.3599 H       1  UNL1        0.0618
     11 C           8.4020    6.6012    1.6857 C.ar    1  UNL1       -0.0535
     12 H           8.5581    6.3484    0.6463 H       1  UNL1        0.0624
     13 C           7.2321    9.4135    0.1057 C.ar    1  UNL1       -0.0147
     14 C           6.7555   10.1146   -1.0004 C.ar    1  UNL1       -0.0535
     15 H           5.8071    9.8312   -1.4312 H       1  UNL1        0.0624
     16 C           7.4756   11.1609   -1.5432 C.ar    1  UNL1       -0.0611
     17 H           7.0935   11.6893   -2.4053 H       1  UNL1        0.0618
     18 C           8.6828   11.5398   -0.9762 C.ar    1  UNL1       -0.0617
     19 H           9.2456   12.3616   -1.3943 H       1  UNL1        0.0618
     20 C           9.1570   10.8642    0.1352 C.ar    1  UNL1       -0.0611
     21 H          10.0931   11.1600    0.5873 H       1  UNL1        0.0618
     22 C           8.4381    9.8109    0.6746 C.ar    1  UNL1       -0.0535
     23 H           8.8203    9.2969    1.5448 H       1  UNL1        0.0624
     24 C           6.3111    6.7977   -0.4576 C.ar    1  UNL1       -0.0147
     25 C           6.9287    6.9595   -1.6926 C.ar    1  UNL1       -0.0535
     26 H           7.3991    7.8978   -1.9482 H       1  UNL1        0.0624
     27 C           6.9523    5.9155   -2.6018 C.ar    1  UNL1       -0.0611
     28 H           7.4363    6.0522   -3.5586 H       1  UNL1        0.0618
     29 C           6.3647    4.7015   -2.2913 C.ar    1  UNL1       -0.0617
     30 H           6.3841    3.8915   -3.0058 H       1  UNL1        0.0618
     31 C           5.7548    4.5297   -1.0585 C.ar    1  UNL1       -0.0611
     32 H           5.2988    3.5825   -0.8088 H       1  UNL1        0.0618
     33 C           5.7266    5.5707   -0.1515 C.ar    1  UNL1       -0.0535
     34 H           5.2512    5.4486    0.8101 H       1  UNL1        0.0624
@<TRIPOS>BOND
     1    28    27    1
     2    30    29    1
     3    27    29   ar
     4    27    25   ar
     5    17    16    1
     6    29    31   ar
     7    26    25    1
     8    25    24   ar
     9    16    14   ar
    10    16    18   ar
    11    15    14    1
    12    19    18    1
    13    31    32    1
    14    31    33   ar
    15    14    13   ar
    16    18    20   ar
    17    24    33   ar
    18    24     1    1
    19    33    34    1
    20    13    22   ar
    21    13     1    1
    22    20    21    1
    23    20    22   ar
    24    12    11    1
    25    22    23    1
    26     1     2    1
    27    11     2   ar
    28    11     9   ar
    29     2     3   ar
    30    10     9    1
    31     9     7   ar
    32     3     4    1
    33     3     5   ar
    34     7     5   ar
    35     7     8    1
    36     5     6    1
