@<TRIPOS>MOLECULE
1
 13 12 0 0 0
SMALL
GASTEIGER

@<TRIPOS>ATOM
      1 P           0.6793   36.7047   -4.9214 P.3     1  UNL1       -0.1154
      2 C           1.3760   38.2907   -4.2973 C.3     1  UNL1       -0.0447
      3 H           1.0177   38.5110   -3.2917 H       1  UNL1        0.0277
      4 H           1.1119   39.0997   -4.9747 H       1  UNL1        0.0277
      5 H           2.4618   38.2048   -4.2865 H       1  UNL1        0.0277
      6 C          -1.0179   36.7370   -4.2075 C.3     1  UNL1       -0.0447
      7 H          -0.9867   36.9136   -3.1320 H       1  UNL1        0.0277
      8 H          -1.4689   35.7659   -4.4083 H       1  UNL1        0.0277
      9 H          -1.6211   37.4999   -4.6887 H       1  UNL1        0.0277
     10 C           1.3800   35.5999   -3.6067 C.3     1  UNL1       -0.0447
     11 H           1.2487   36.0610   -2.6273 H       1  UNL1        0.0277
     12 H           2.4372   35.4089   -3.7724 H       1  UNL1        0.0277
     13 H           0.8384   34.6551   -3.6302 H       1  UNL1        0.0277
@<TRIPOS>BOND
     1     4     2    1
     2     1     2    1
     3     1     6    1
     4     1    10    1
     5     9     6    1
     6     8     6    1
     7     2     5    1
     8     2     3    1
     9     6     7    1
    10    12    10    1
    11    13    10    1
    12    10    11    1
