@<TRIPOS>MOLECULE
1
 13 12 0 0 0
SMALL
GASTEIGER

@<TRIPOS>ATOM
      1 P           2.8070   34.7513   -7.0185 P.3     1  UNL1       -0.1154
      2 C           2.6016   33.2223   -6.0087 C.3     1  UNL1       -0.0447
      3 H           3.5701   32.7783   -5.7759 H       1  UNL1        0.0277
      4 H           2.0073   32.5099   -6.5798 H       1  UNL1        0.0277
      5 H           2.0666   33.4495   -5.0917 H       1  UNL1        0.0277
      6 C           3.8876   33.9905   -8.3175 C.3     1  UNL1       -0.0447
      7 H           4.7284   33.4912   -7.8351 H       1  UNL1        0.0277
      8 H           4.2610   34.7606   -8.9873 H       1  UNL1        0.0277
      9 H           3.3288   33.2613   -8.8981 H       1  UNL1        0.0277
     10 C           4.1840   35.5734   -6.1073 C.3     1  UNL1       -0.0447
     11 H           4.8940   34.8389   -5.7252 H       1  UNL1        0.0277
     12 H           3.7879   36.1686   -5.2877 H       1  UNL1        0.0277
     13 H           4.6920   36.2395   -6.8033 H       1  UNL1        0.0277
@<TRIPOS>BOND
     1     8     6    1
     2     9     6    1
     3     6     7    1
     4     6     1    1
     5     1    10    1
     6     1     2    1
     7    13    10    1
     8     4     2    1
     9    10    11    1
    10    10    12    1
    11     2     3    1
    12     2     5    1
