@<TRIPOS>MOLECULE
1
 13 12 0 0 0
SMALL
GASTEIGER

@<TRIPOS>ATOM
      1 P          -0.2547   34.8171   -9.0923 P.3     1  UNL1       -0.1154
      2 C          -0.7809   35.2611  -10.8058 C.3     1  UNL1       -0.0447
      3 H          -1.1577   34.3734  -11.3145 H       1  UNL1        0.0277
      4 H           0.0674   35.6604  -11.3553 H       1  UNL1        0.0277
      5 H          -1.5682   36.0102  -10.7689 H       1  UNL1        0.0277
      6 C           0.5822   33.2343   -9.5255 C.3     1  UNL1       -0.0447
      7 H          -0.0919   32.5754  -10.0743 H       1  UNL1        0.0277
      8 H           0.9047   32.7448   -8.6080 H       1  UNL1        0.0277
      9 H           1.4490   33.4595  -10.1440 H       1  UNL1        0.0277
     10 C          -1.8567   34.1212   -8.5123 C.3     1  UNL1       -0.0447
     11 H          -2.2757   33.4343   -9.2494 H       1  UNL1        0.0277
     12 H          -2.5523   34.9409   -8.3347 H       1  UNL1        0.0277
     13 H          -1.6881   33.6019   -7.5699 H       1  UNL1        0.0277
@<TRIPOS>BOND
     1     4     2    1
     2     3     2    1
     3     2     5    1
     4     2     1    1
     5     9     6    1
     6     7     6    1
     7     6     1    1
     8     6     8    1
     9    11    10    1
    10     1    10    1
    11    10    12    1
    12    10    13    1
