@<TRIPOS>MOLECULE
1
 13 12 0 0 0
SMALL
GASTEIGER

@<TRIPOS>ATOM
      1 P          -0.1802   38.3780   -7.9517 P.3     1  UNL1       -0.1154
      2 C           0.8903   39.8371   -8.2758 C.3     1  UNL1       -0.0447
      3 H           0.2844   40.7314   -8.4243 H       1  UNL1        0.0277
      4 H           1.4934   39.6565   -9.1619 H       1  UNL1        0.0277
      5 H           1.5630   39.9865   -7.4324 H       1  UNL1        0.0277
      6 C          -1.3844   39.1806   -6.8035 C.3     1  UNL1       -0.0447
      7 H          -1.7425   40.1204   -7.2260 H       1  UNL1        0.0277
      8 H          -0.9173   39.3761   -5.8409 H       1  UNL1        0.0277
      9 H          -2.2270   38.5042   -6.6637 H       1  UNL1        0.0277
     10 C          -1.2591   38.4744   -9.4417 C.3     1  UNL1       -0.0447
     11 H          -1.6492   39.4844   -9.5706 H       1  UNL1        0.0277
     12 H          -2.0871   37.7790   -9.3076 H       1  UNL1        0.0277
     13 H          -0.6872   38.1914  -10.3219 H       1  UNL1        0.0277
@<TRIPOS>BOND
     1    13    10    1
     2    11    10    1
     3    10    12    1
     4    10     1    1
     5     4     2    1
     6     3     2    1
     7     2     1    1
     8     2     5    1
     9     1     6    1
    10     7     6    1
    11     6     9    1
    12     6     8    1
