@<TRIPOS>MOLECULE
1
 24 23 0 0 0
SMALL
GASTEIGER

@<TRIPOS>ATOM
      1 P          -2.9864    1.9693    3.7672 P.3     1  UNL1       -0.1119
      2 P          -0.9752    4.1526    2.3710 P.3     1  UNL1       -0.1119
      3 C          -3.3875    2.7375    2.1225 C.3     1  UNL1       -0.0288
      4 H          -2.9433    2.1144    1.3422 H       1  UNL1        0.0316
      5 H          -4.4732    2.7490    1.9760 H       1  UNL1        0.0316
      6 C          -2.8132    4.1456    2.0603 C.3     1  UNL1       -0.0288
      7 H          -3.2699    4.7682    2.8363 H       1  UNL1        0.0316
      8 H          -3.0161    4.6102    1.0895 H       1  UNL1        0.0316
      9 C          -4.3014    2.7547    4.7832 C.3     1  UNL1       -0.0445
     10 H          -4.2893    2.3036    5.7739 H       1  UNL1        0.0277
     11 H          -5.2790    2.5997    4.3254 H       1  UNL1        0.0277
     12 H          -4.1046    3.8211    4.8799 H       1  UNL1        0.0277
     13 C          -3.7369    0.3128    3.5583 C.3     1  UNL1       -0.0445
     14 H          -3.0951   -0.3039    2.9354 H       1  UNL1        0.0277
     15 H          -4.7264    0.4020    3.1089 H       1  UNL1        0.0277
     16 H          -3.8209   -0.1463    4.5417 H       1  UNL1        0.0277
     17 C          -0.7582    5.9846    2.4493 C.3     1  UNL1       -0.0445
     18 H          -1.1034    6.3555    3.4142 H       1  UNL1        0.0277
     19 H          -1.3211    6.4683    1.6512 H       1  UNL1        0.0277
     20 H           0.2994    6.2143    2.3354 H       1  UNL1        0.0277
     21 C          -0.3627    3.8629    0.6610 C.3     1  UNL1       -0.0445
     22 H           0.7248    3.9113    0.6686 H       1  UNL1        0.0277
     23 H          -0.7619    4.6197   -0.0145 H       1  UNL1        0.0277
     24 H          -0.6613    2.8716    0.3286 H       1  UNL1        0.0277
@<TRIPOS>BOND
     1    23    21    1
     2    24    21    1
     3    21    22    1
     4    21     2    1
     5     8     6    1
     6     4     3    1
     7    19    17    1
     8     5     3    1
     9     6     3    1
    10     6     2    1
    11     6     7    1
    12     3     1    1
    13    20    17    1
    14     2    17    1
    15    17    18    1
    16    14    13    1
    17    15    13    1
    18    13     1    1
    19    13    16    1
    20     1     9    1
    21    11     9    1
    22     9    12    1
    23     9    10    1
