@<TRIPOS>MOLECULE
1
 13 12 0 0 0
SMALL
GASTEIGER

@<TRIPOS>ATOM
      1 P          10.2813   22.8074   14.1255 P.3     1  UNL1       -0.1154
      2 C          10.3812   24.6375   13.9081 C.3     1  UNL1       -0.0447
      3 H           9.3989   25.0923   13.9916 H       1  UNL1        0.0277
      4 H          10.8159   24.8732   12.9374 H       1  UNL1        0.0277
      5 H          11.0181   25.0399   14.6936 H       1  UNL1        0.0277
      6 C          12.0830   22.4403   14.0084 C.3     1  UNL1       -0.0447
      7 H          12.6109   22.9628   14.8025 H       1  UNL1        0.0277
      8 H          12.4704   22.7680   13.0444 H       1  UNL1        0.0277
      9 H          12.2469   21.3731   14.1292 H       1  UNL1        0.0277
     10 C           9.7582   22.2300   12.4588 C.3     1  UNL1       -0.0447
     11 H           9.9011   21.1521   12.4128 H       1  UNL1        0.0277
     12 H          10.3478   22.7146   11.6807 H       1  UNL1        0.0277
     13 H           8.7027   22.4322   12.2973 H       1  UNL1        0.0277
@<TRIPOS>BOND
     1    12    10    1
     2    13    10    1
     3    11    10    1
     4    10     1    1
     5     4     2    1
     6     8     6    1
     7     2     3    1
     8     2     1    1
     9     2     5    1
    10     6     1    1
    11     6     9    1
    12     6     7    1
