@<TRIPOS>MOLECULE
1
 37 39 0 0 0
SMALL
GASTEIGER

@<TRIPOS>ATOM
      1 P           3.0945   14.4839    2.4179 P.3     1  UNL1        0.5328
      2 O           3.9085   13.0948    2.5503 O.3     1  UNL1       -0.4083
      3 C           5.1569   12.9101    2.0122 C.ar    1  UNL1        0.1314
      4 C           5.8458   13.9072    1.3377 C.ar    1  UNL1       -0.0194
      5 H           5.3849   14.8783    1.2063 H       1  UNL1        0.0654
      6 C           7.1130   13.6490    0.8445 C.ar    1  UNL1       -0.0583
      7 H           7.6466   14.4311    0.3264 H       1  UNL1        0.0619
      8 C           7.6905   12.4020    1.0095 C.ar    1  UNL1       -0.0615
      9 H           8.6792   12.2066    0.6233 H       1  UNL1        0.0618
     10 C           6.9918   11.4040    1.6684 C.ar    1  UNL1       -0.0583
     11 H           7.4321   10.4261    1.7945 H       1  UNL1        0.0619
     12 C           5.7279   11.6523    2.1704 C.ar    1  UNL1       -0.0194
     13 H           5.1695   10.8877    2.6881 H       1  UNL1        0.0654
     14 O           2.7277   14.2743    0.8394 O.3     1  UNL1       -0.4083
     15 C           2.1626   15.2502    0.0467 C.ar    1  UNL1        0.1314
     16 C           1.0686   15.9810    0.4795 C.ar    1  UNL1       -0.0194
     17 H           0.6724   15.7989    1.4674 H       1  UNL1        0.0654
     18 C           0.5105   16.9314   -0.3573 C.ar    1  UNL1       -0.0583
     19 H          -0.3303   17.5129   -0.0129 H       1  UNL1        0.0619
     20 C           1.0344   17.1413   -1.6208 C.ar    1  UNL1       -0.0615
     21 H           0.6010   17.8886   -2.2681 H       1  UNL1        0.0618
     22 C           2.1180   16.3953   -2.0530 C.ar    1  UNL1       -0.0583
     23 H           2.5304   16.5580   -3.0372 H       1  UNL1        0.0619
     24 C           2.6877   15.4482   -1.2224 C.ar    1  UNL1       -0.0194
     25 H           3.5411   14.8670   -1.5356 H       1  UNL1        0.0654
     26 O           1.7573   14.0779    3.2043 O.3     1  UNL1       -0.4083
     27 C           1.2419   12.8111    3.4060 C.ar    1  UNL1        0.1314
     28 C           0.6544   12.5564    4.6385 C.ar    1  UNL1       -0.0194
     29 H           0.6486   13.3358    5.3832 H       1  UNL1        0.0654
     30 C           0.0927   11.3184    4.8910 C.ar    1  UNL1       -0.0583
     31 H          -0.3636   11.1237    5.8505 H       1  UNL1        0.0619
     32 C           0.1164   10.3309    3.9200 C.ar    1  UNL1       -0.0615
     33 H          -0.3196    9.3636    4.1200 H       1  UNL1        0.0618
     34 C           0.6983   10.5913    2.6914 C.ar    1  UNL1       -0.0583
     35 H           0.7152    9.8272    1.9284 H       1  UNL1        0.0619
     36 C           1.2589   11.8293    2.4271 C.ar    1  UNL1       -0.0194
     37 H           1.7073   12.0404    1.4690 H       1  UNL1        0.0654
@<TRIPOS>BOND
     1    23    22    1
     2    21    20    1
     3    22    20   ar
     4    22    24   ar
     5    20    18   ar
     6    25    24    1
     7    24    15   ar
     8    18    19    1
     9    18    16   ar
    10    15    16   ar
    11    15    14    1
    12     7     6    1
    13    16    17    1
    14     9     8    1
    15    14     1    1
    16     6     8   ar
    17     6     4   ar
    18     8    10   ar
    19     5     4    1
    20     4     3   ar
    21    37    36    1
    22    10    11    1
    23    10    12   ar
    24    35    34    1
    25     3    12   ar
    26     3     2    1
    27    12    13    1
    28     1     2    1
    29     1    26    1
    30    36    34   ar
    31    36    27   ar
    32    34    32   ar
    33    26    27    1
    34    27    28   ar
    35    32    33    1
    36    32    30   ar
    37    28    30   ar
    38    28    29    1
    39    30    31    1
