@<TRIPOS>MOLECULE
1
 34 36 0 0 0
SMALL
GASTEIGER

@<TRIPOS>ATOM
      1 P           3.5936    7.6937    4.3159 P.3     1  UNL1       -0.0131
      2 C           4.1062    8.8703    5.6108 C.ar    1  UNL1       -0.0147
      3 C           5.2792    9.6143    5.5630 C.ar    1  UNL1       -0.0535
      4 H           5.8914    9.5993    4.6715 H       1  UNL1        0.0624
      5 C           5.6605   10.3800    6.6527 C.ar    1  UNL1       -0.0611
      6 H           6.5712   10.9602    6.6083 H       1  UNL1        0.0618
      7 C           4.8814   10.4027    7.7968 C.ar    1  UNL1       -0.0617
      8 H           5.1812   11.0036    8.6428 H       1  UNL1        0.0618
      9 C           3.7197    9.6455    7.8592 C.ar    1  UNL1       -0.0611
     10 H           3.1169    9.6548    8.7557 H       1  UNL1        0.0618
     11 C           3.3414    8.8748    6.7777 C.ar    1  UNL1       -0.0535
     12 H           2.4506    8.2597    6.8144 H       1  UNL1        0.0624
     13 C           1.9239    8.3291    3.9076 C.ar    1  UNL1       -0.0147
     14 C           1.1321    7.5174    3.1001 C.ar    1  UNL1       -0.0535
     15 H           1.5171    6.5558    2.7903 H       1  UNL1        0.0624
     16 C          -0.1292    7.9313    2.7154 C.ar    1  UNL1       -0.0611
     17 H          -0.7381    7.2937    2.0923 H       1  UNL1        0.0618
     18 C          -0.6141    9.1606    3.1333 C.ar    1  UNL1       -0.0617
     19 H          -1.6016    9.4834    2.8379 H       1  UNL1        0.0618
     20 C           0.1694    9.9742    3.9333 C.ar    1  UNL1       -0.0611
     21 H          -0.2050   10.9333    4.2614 H       1  UNL1        0.0618
     22 C           1.4347    9.5652    4.3176 C.ar    1  UNL1       -0.0535
     23 H           2.0341   10.2091    4.9461 H       1  UNL1        0.0624
     24 C           4.4673    8.3446    2.8406 C.ar    1  UNL1       -0.0147
     25 C           4.3725    9.6792    2.4545 C.ar    1  UNL1       -0.0535
     26 H           3.7783   10.3660    3.0412 H       1  UNL1        0.0624
     27 C           5.0356   10.1209    1.3249 C.ar    1  UNL1       -0.0611
     28 H           4.9627   11.1575    1.0291 H       1  UNL1        0.0618
     29 C           5.7898    9.2366    0.5687 C.ar    1  UNL1       -0.0617
     30 H           6.3051    9.5865   -0.3138 H       1  UNL1        0.0618
     31 C           5.8750    7.9052    0.9403 C.ar    1  UNL1       -0.0611
     32 H           6.4531    7.2127    0.3467 H       1  UNL1        0.0618
     33 C           5.2137    7.4612    2.0721 C.ar    1  UNL1       -0.0535
     34 H           5.2531    6.4220    2.3696 H       1  UNL1        0.0624
@<TRIPOS>BOND
     1    30    29    1
     2    32    31    1
     3    29    31   ar
     4    29    27   ar
     5    31    33   ar
     6    28    27    1
     7    27    25   ar
     8    33    34    1
     9    33    24   ar
    10    17    16    1
    11    25    24   ar
    12    25    26    1
    13    16    14   ar
    14    16    18   ar
    15    15    14    1
    16    19    18    1
    17    24     1    1
    18    14    13   ar
    19    18    20   ar
    20    13     1    1
    21    13    22   ar
    22    20    21    1
    23    20    22   ar
    24     1     2    1
    25    22    23    1
    26     4     3    1
    27     3     2   ar
    28     3     5   ar
    29     2    11   ar
    30     6     5    1
    31     5     7   ar
    32    11    12    1
    33    11     9   ar
    34     7     9   ar
    35     7     8    1
    36     9    10    1
