@<TRIPOS>MOLECULE
1
 37 39 0 0 0
SMALL
GASTEIGER

@<TRIPOS>ATOM
      1 P           3.1060   10.0633    3.5383 P.3     1  UNL1        0.5328
      2 O           2.6046   10.7578    4.9468 O.3     1  UNL1       -0.4083
      3 C           3.4171   10.8856    6.0414 C.ar    1  UNL1        0.1314
      4 C           2.8090   11.1359    7.2672 C.ar    1  UNL1       -0.0194
      5 H           1.7338   11.2169    7.3132 H       1  UNL1        0.0654
      6 C           3.5860   11.2808    8.4023 C.ar    1  UNL1       -0.0583
      7 H           3.1102   11.4755    9.3519 H       1  UNL1        0.0619
      8 C           4.9650   11.1757    8.3232 C.ar    1  UNL1       -0.0615
      9 H           5.5678   11.2874    9.2116 H       1  UNL1        0.0618
     10 C           5.5665   10.9333    7.0996 C.ar    1  UNL1       -0.0583
     11 H           6.6401   10.8579    7.0273 H       1  UNL1        0.0619
     12 C           4.7997   10.7876    5.9565 C.ar    1  UNL1       -0.0194
     13 H           5.2567   10.6021    4.9953 H       1  UNL1        0.0654
     14 O           3.9221   11.2459    2.8192 O.3     1  UNL1       -0.4083
     15 C           3.3149   12.4563    2.4934 C.ar    1  UNL1        0.1314
     16 C           3.3062   13.4996    3.4065 C.ar    1  UNL1       -0.0194
     17 H           3.7499   13.3576    4.3806 H       1  UNL1        0.0654
     18 C           2.7363   14.7107    3.0517 C.ar    1  UNL1       -0.0583
     19 H           2.7286   15.5243    3.7616 H       1  UNL1        0.0619
     20 C           2.1774   14.8782    1.7964 C.ar    1  UNL1       -0.0615
     21 H           1.7315   15.8235    1.5252 H       1  UNL1        0.0618
     22 C           2.1920   13.8320    0.8886 C.ar    1  UNL1       -0.0583
     23 H           1.7583   13.9599   -0.0919 H       1  UNL1        0.0619
     24 C           2.7583   12.6179    1.2337 C.ar    1  UNL1       -0.0194
     25 H           2.7830   11.7882    0.5447 H       1  UNL1        0.0654
     26 O           1.6932   10.2719    2.7853 O.3     1  UNL1       -0.4083
     27 C           0.7157    9.3023    2.7842 C.ar    1  UNL1        0.1314
     28 C          -0.2525    9.2894    3.7785 C.ar    1  UNL1       -0.0194
     29 H          -0.2088   10.0329    4.5598 H       1  UNL1        0.0654
     30 C          -1.2491    8.3293    3.7500 C.ar    1  UNL1       -0.0583
     31 H          -2.0029    8.3174    4.5233 H       1  UNL1        0.0619
     32 C          -1.2781    7.3836    2.7379 C.ar    1  UNL1       -0.0615
     33 H          -2.0545    6.6336    2.7225 H       1  UNL1        0.0618
     34 C          -0.3118    7.4035    1.7459 C.ar    1  UNL1       -0.0583
     35 H          -0.3336    6.6698    0.9542 H       1  UNL1        0.0619
     36 C           0.6889    8.3599    1.7656 C.ar    1  UNL1       -0.0194
     37 H           1.4484    8.3986    1.0006 H       1  UNL1        0.0654
@<TRIPOS>BOND
     1    23    22    1
     2    25    24    1
     3    22    24   ar
     4    22    20   ar
     5    35    34    1
     6    37    36    1
     7    24    15   ar
     8    21    20    1
     9    34    36   ar
    10    34    32   ar
    11    36    27   ar
    12    20    18   ar
    13    15    14    1
    14    15    16   ar
    15    33    32    1
    16    32    30   ar
    17    27    26    1
    18    27    28   ar
    19    26     1    1
    20    14     1    1
    21    18    16   ar
    22    18    19    1
    23    16    17    1
    24     1     2    1
    25    30    28   ar
    26    30    31    1
    27    28    29    1
    28     2     3    1
    29    13    12    1
    30    12     3   ar
    31    12    10   ar
    32     3     4   ar
    33    11    10    1
    34    10     8   ar
    35     4     5    1
    36     4     6   ar
    37     8     6   ar
    38     8     9    1
    39     6     7    1
