@<TRIPOS>MOLECULE
1
 34 36 0 0 0
SMALL
GASTEIGER

@<TRIPOS>ATOM
      1 P           5.7956   -0.3880    0.2134 P.3     1  UNL1       -0.0131
      2 C           5.7181   -1.7710   -0.9826 C.ar    1  UNL1       -0.0147
      3 C           6.6644   -2.7841   -0.9573 C.ar    1  UNL1       -0.0535
      4 H           7.4805   -2.7276   -0.2514 H       1  UNL1        0.0624
      5 C           6.5521   -3.8643   -1.8164 C.ar    1  UNL1       -0.0611
      6 H           7.2943   -4.6484   -1.7887 H       1  UNL1        0.0618
      7 C           5.4916   -3.9383   -2.7012 C.ar    1  UNL1       -0.0617
      8 H           5.4035   -4.7790   -3.3740 H       1  UNL1        0.0618
      9 C           4.5300   -2.9382   -2.7154 C.ar    1  UNL1       -0.0611
     10 H           3.6926   -3.0033   -3.3954 H       1  UNL1        0.0618
     11 C           4.6352   -1.8634   -1.8553 C.ar    1  UNL1       -0.0535
     12 H           3.8792   -1.0893   -1.8534 H       1  UNL1        0.0624
     13 C           5.4173    1.0418   -0.8480 C.ar    1  UNL1       -0.0147
     14 C           5.6903    1.0395   -2.2123 C.ar    1  UNL1       -0.0535
     15 H           6.0828    0.1476   -2.6805 H       1  UNL1        0.0624
     16 C           5.4651    2.1758   -2.9683 C.ar    1  UNL1       -0.0611
     17 H           5.6776    2.1652   -4.0277 H       1  UNL1        0.0618
     18 C           4.9733    3.3251   -2.3728 C.ar    1  UNL1       -0.0617
     19 H           4.7880    4.2065   -2.9695 H       1  UNL1        0.0618
     20 C           4.7427    3.3495   -1.0068 C.ar    1  UNL1       -0.0611
     21 H           4.3916    4.2541   -0.5315 H       1  UNL1        0.0618
     22 C           4.9801    2.2204   -0.2453 C.ar    1  UNL1       -0.0535
     23 H           4.8655    2.2577    0.8302 H       1  UNL1        0.0624
     24 C           4.2072   -0.8044    1.0320 C.ar    1  UNL1       -0.0147
     25 C           3.1007    0.0234    1.1611 C.ar    1  UNL1       -0.0535
     26 H           3.0840    0.9934    0.6876 H       1  UNL1        0.0624
     27 C           2.0000   -0.3988    1.8890 C.ar    1  UNL1       -0.0611
     28 H           1.1432    0.2531    1.9838 H       1  UNL1        0.0618
     29 C           1.9931   -1.6419    2.4959 C.ar    1  UNL1       -0.0617
     30 H           1.1371   -1.9586    3.0736 H       1  UNL1        0.0618
     31 C           3.0846   -2.4837    2.3509 C.ar    1  UNL1       -0.0611
     32 H           3.0827   -3.4609    2.8120 H       1  UNL1        0.0618
     33 C           4.1786   -2.0709    1.6183 C.ar    1  UNL1       -0.0535
     34 H           5.0283   -2.7315    1.4927 H       1  UNL1        0.0624
@<TRIPOS>BOND
     1    17    16    1
     2    10     9    1
     3     8     7    1
     4    19    18    1
     5    16    18   ar
     6    16    14   ar
     7     9     7   ar
     8     9    11   ar
     9     7     5   ar
    10    15    14    1
    11    18    20   ar
    12    14    13   ar
    13    11    12    1
    14    11     2   ar
    15     5     6    1
    16     5     3   ar
    17    20    21    1
    18    20    22   ar
    19     2     3   ar
    20     2     1    1
    21     3     4    1
    22    13    22   ar
    23    13     1    1
    24    22    23    1
    25     1    24    1
    26    26    25    1
    27    24    25   ar
    28    24    33   ar
    29    25    27   ar
    30    34    33    1
    31    33    31   ar
    32    27    28    1
    33    27    29   ar
    34    31    29   ar
    35    31    32    1
    36    29    30    1
