@<TRIPOS>MOLECULE
1
 34 36 0 0 0
SMALL
GASTEIGER

@<TRIPOS>ATOM
      1 P           9.1558    0.3877    0.2135 P.3     1  UNL1       -0.0131
      2 C           9.2338    1.7713   -0.9818 C.ar    1  UNL1       -0.0147
      3 C           8.2873    2.7842   -0.9566 C.ar    1  UNL1       -0.0535
      4 H           7.4707    2.7273   -0.2512 H       1  UNL1        0.0624
      5 C           8.3998    3.8647   -1.8152 C.ar    1  UNL1       -0.0611
      6 H           7.6574    4.6487   -1.7877 H       1  UNL1        0.0618
      7 C           9.4609    3.9393   -2.6994 C.ar    1  UNL1       -0.0617
      8 H           9.5492    4.7803   -3.3718 H       1  UNL1        0.0618
      9 C          10.4226    2.9394   -2.7135 C.ar    1  UNL1       -0.0611
     10 H          11.2604    3.0049   -3.3929 H       1  UNL1        0.0618
     11 C          10.3172    1.8642   -1.8538 C.ar    1  UNL1       -0.0535
     12 H          11.0733    1.0902   -1.8518 H       1  UNL1        0.0624
     13 C           9.5341   -1.0416   -0.8486 C.ar    1  UNL1       -0.0147
     14 C           9.2617   -1.0384   -2.2130 C.ar    1  UNL1       -0.0535
     15 H           8.8697   -0.1461   -2.6808 H       1  UNL1        0.0624
     16 C           9.4869   -2.1742   -2.9695 C.ar    1  UNL1       -0.0611
     17 H           9.2749   -2.1629   -4.0291 H       1  UNL1        0.0618
     18 C           9.9782   -3.3241   -2.3746 C.ar    1  UNL1       -0.0617
     19 H          10.1636   -4.2051   -2.9717 H       1  UNL1        0.0618
     20 C          10.2081   -3.3493   -1.0085 C.ar    1  UNL1       -0.0611
     21 H          10.5588   -4.2543   -0.5336 H       1  UNL1        0.0618
     22 C           9.9707   -2.2207   -0.2464 C.ar    1  UNL1       -0.0535
     23 H          10.0847   -2.2588    0.8291 H       1  UNL1        0.0624
     24 C          10.7443    0.8035    1.0325 C.ar    1  UNL1       -0.0147
     25 C          11.8502   -0.0251    1.1624 C.ar    1  UNL1       -0.0535
     26 H          11.8664   -0.9953    0.6892 H       1  UNL1        0.0624
     27 C          12.9507    0.3964    1.8909 C.ar    1  UNL1       -0.0611
     28 H          13.8070   -0.2561    1.9864 H       1  UNL1        0.0618
     29 C          12.9582    1.6395    2.4976 C.ar    1  UNL1       -0.0617
     30 H          13.8141    1.9558    3.0757 H       1  UNL1        0.0618
     31 C          11.8673    2.4821    2.3519 C.ar    1  UNL1       -0.0611
     32 H          11.8697    3.4594    2.8127 H       1  UNL1        0.0618
     33 C          10.7734    2.0700    1.6187 C.ar    1  UNL1       -0.0535
     34 H           9.9243    2.7312    1.4925 H       1  UNL1        0.0624
@<TRIPOS>BOND
     1    17    16    1
     2    10     9    1
     3     8     7    1
     4    19    18    1
     5    16    18   ar
     6    16    14   ar
     7     9     7   ar
     8     9    11   ar
     9     7     5   ar
    10    15    14    1
    11    18    20   ar
    12    14    13   ar
    13    11    12    1
    14    11     2   ar
    15     5     6    1
    16     5     3   ar
    17    20    21    1
    18    20    22   ar
    19     2     3   ar
    20     2     1    1
    21     3     4    1
    22    13    22   ar
    23    13     1    1
    24    22    23    1
    25     1    24    1
    26    26    25    1
    27    24    25   ar
    28    24    33   ar
    29    25    27   ar
    30    34    33    1
    31    33    31   ar
    32    27    28    1
    33    27    29   ar
    34    31    29   ar
    35    31    32    1
    36    29    30    1
