@<TRIPOS>MOLECULE
1
 34 36 0 0 0
SMALL
GASTEIGER

@<TRIPOS>ATOM
      1 P          -1.6825    7.0749    0.2246 P.3     1  UNL1       -0.0131
      2 C          -1.7478    5.6801   -0.9648 C.ar    1  UNL1       -0.0147
      3 C          -0.7854    4.6822   -0.9437 C.ar    1  UNL1       -0.0535
      4 H           0.0339    4.7544   -0.2439 H       1  UNL1        0.0624
      5 C          -0.8866    3.5970   -1.7978 C.ar    1  UNL1       -0.0611
      6 H          -0.1315    2.8253   -1.7729 H       1  UNL1        0.0618
      7 C          -1.9527    3.5019   -2.6740 C.ar    1  UNL1       -0.0617
      8 H          -2.0324    2.6572   -3.3428 H       1  UNL1        0.0618
      9 C          -2.9299    4.4867   -2.6848 C.ar    1  UNL1       -0.0611
     10 H          -3.7713    4.4058   -3.3580 H       1  UNL1        0.0618
     11 C          -2.8348    5.5666   -1.8297 C.ar    1  UNL1       -0.0535
     12 H          -3.6028    6.3288   -1.8259 H       1  UNL1        0.0624
     13 C          -2.0679    8.4902   -0.8608 C.ar    1  UNL1       -0.0147
     14 C          -2.5032    9.6779   -0.2748 C.ar    1  UNL1       -0.0535
     15 H          -2.6107    9.7325    0.8002 H       1  UNL1        0.0624
     16 C          -2.7486   10.7943   -1.0525 C.ar    1  UNL1       -0.0611
     17 H          -3.1004   11.7051   -0.5896 H       1  UNL1        0.0618
     18 C          -2.5244   10.7499   -2.4190 C.ar    1  UNL1       -0.0617
     19 H          -2.7153   11.6212   -3.0284 H       1  UNL1        0.0618
     20 C          -2.0307    9.5932   -2.9982 C.ar    1  UNL1       -0.0611
     21 H          -1.8218    9.5668   -4.0580 H       1  UNL1        0.0618
     22 C          -1.7995    8.4692   -2.2256 C.ar    1  UNL1       -0.0535
     23 H          -1.4069    7.5718   -2.6824 H       1  UNL1        0.0624
     24 C          -3.2806    6.6579    1.0305 C.ar    1  UNL1       -0.0147
     25 C          -4.3798    7.4945    1.1646 C.ar    1  UNL1       -0.0535
     26 H          -4.3871    8.4674    0.6972 H       1  UNL1        0.0624
     27 C          -5.4861    7.0776    1.8868 C.ar    1  UNL1       -0.0611
     28 H          -6.3373    7.7364    1.9840 H       1  UNL1        0.0618
     29 C          -5.5051    5.8310    2.4862 C.ar    1  UNL1       -0.0617
     30 H          -6.3648    5.5182    3.0605 H       1  UNL1        0.0618
     31 C          -4.4199    4.9815    2.3390 C.ar    1  UNL1       -0.0611
     32 H          -4.4301    4.0024    2.7959 H       1  UNL1        0.0618
     33 C          -3.3208    5.3894    1.6112 C.ar    1  UNL1       -0.0535
     34 H          -2.4762    4.7234    1.4861 H       1  UNL1        0.0624
@<TRIPOS>BOND
     1    21    20    1
     2    10     9    1
     3     8     7    1
     4    19    18    1
     5    20    18   ar
     6    20    22   ar
     7     9     7   ar
     8     9    11   ar
     9    23    22    1
    10     7     5   ar
    11    18    16   ar
    12    22    13   ar
    13    11    12    1
    14    11     2   ar
    15     5     6    1
    16     5     3   ar
    17    16    17    1
    18    16    14   ar
    19     2     3   ar
    20     2     1    1
    21     3     4    1
    22    13    14   ar
    23    13     1    1
    24    14    15    1
    25     1    24    1
    26    26    25    1
    27    24    25   ar
    28    24    33   ar
    29    25    27   ar
    30    34    33    1
    31    33    31   ar
    32    27    28    1
    33    27    29   ar
    34    31    29   ar
    35    31    32    1
    36    29    30    1
