@<TRIPOS>MOLECULE
1
 34 36 0 0 0
SMALL
GASTEIGER

@<TRIPOS>ATOM
      1 P           1.6810    7.8916    0.2254 P.3     1  UNL1       -0.0131
      2 C           1.7471    9.2873   -0.9630 C.ar    1  UNL1       -0.0147
      3 C           0.7846   10.2851   -0.9415 C.ar    1  UNL1       -0.0535
      4 H          -0.0351   10.2123   -0.2423 H       1  UNL1        0.0624
      5 C           0.8865   11.3713   -1.7942 C.ar    1  UNL1       -0.0611
      6 H           0.1314   12.1431   -1.7690 H       1  UNL1        0.0618
      7 C           1.9533   11.4675   -2.6694 C.ar    1  UNL1       -0.0617
      8 H           2.0336   12.3130   -3.3372 H       1  UNL1        0.0618
      9 C           2.9304   10.4827   -2.6807 C.ar    1  UNL1       -0.0611
     10 H           3.7723   10.5643   -3.3533 H       1  UNL1        0.0618
     11 C           2.8347    9.4018   -1.8270 C.ar    1  UNL1       -0.0535
     12 H           3.6027    8.6396   -1.8235 H       1  UNL1        0.0624
     13 C           2.0672    6.4772   -0.8609 C.ar    1  UNL1       -0.0147
     14 C           2.5017    5.2889   -0.2754 C.ar    1  UNL1       -0.0535
     15 H           2.6077    5.2333    0.7996 H       1  UNL1        0.0624
     16 C           2.7476    4.1730   -1.0537 C.ar    1  UNL1       -0.0611
     17 H           3.0986    3.2618   -0.5911 H       1  UNL1        0.0618
     18 C           2.5249    4.2185   -2.4205 C.ar    1  UNL1       -0.0617
     19 H           2.7165    3.3477   -3.0304 H       1  UNL1        0.0618
     20 C           2.0323    5.3759   -2.9993 C.ar    1  UNL1       -0.0611
     21 H           1.8247    5.4031   -4.0594 H       1  UNL1        0.0618
     22 C           1.8005    6.4993   -2.2262 C.ar    1  UNL1       -0.0535
     23 H           1.4086    7.3971   -2.6827 H       1  UNL1        0.0624
     24 C           3.2792    8.3080    1.0316 C.ar    1  UNL1       -0.0147
     25 C           4.3778    7.4707    1.1663 C.ar    1  UNL1       -0.0535
     26 H           4.3846    6.4976    0.6994 H       1  UNL1        0.0624
     27 C           5.4840    7.8871    1.8890 C.ar    1  UNL1       -0.0611
     28 H           6.3347    7.2277    1.9869 H       1  UNL1        0.0618
     29 C           5.5036    9.1338    2.4882 C.ar    1  UNL1       -0.0617
     30 H           6.3632    9.4462    3.0629 H       1  UNL1        0.0618
     31 C           4.4190    9.9839    2.3404 C.ar    1  UNL1       -0.0611
     32 H           4.4295   10.9630    2.7971 H       1  UNL1        0.0618
     33 C           3.3199    9.5766    1.6123 C.ar    1  UNL1       -0.0535
     34 H           2.4758   10.2430    1.4867 H       1  UNL1        0.0624
@<TRIPOS>BOND
     1    21    20    1
     2    10     9    1
     3     8     7    1
     4    19    18    1
     5    20    18   ar
     6    20    22   ar
     7    23    22    1
     8     9     7   ar
     9     9    11   ar
    10     7     5   ar
    11    18    16   ar
    12    22    13   ar
    13    11    12    1
    14    11     2   ar
    15     5     6    1
    16     5     3   ar
    17    16    17    1
    18    16    14   ar
    19     2     3   ar
    20     2     1    1
    21     3     4    1
    22    13    14   ar
    23    13     1    1
    24    14    15    1
    25     1    24    1
    26    26    25    1
    27    24    25   ar
    28    24    33   ar
    29    25    27   ar
    30    34    33    1
    31    33    31   ar
    32    27    28    1
    33    27    29   ar
    34    31    29   ar
    35    31    32    1
    36    29    30    1
