@<TRIPOS>MOLECULE
1
 77 79 0 0 0
SMALL
GASTEIGER

@<TRIPOS>ATOM
      1 P           3.5529    0.3234    6.6039 P.3     1  UNL1        0.0000
      2 SI          0.9543   -2.6286    8.7102 Si      1  UNL1        0.0000
      3 N           2.2778   -0.7881    6.8275 N.pl3   1  UNL1        0.0000
      4 N           4.1436   -0.1280    8.1438 N.pl3   1  UNL1        0.0000
      5 C           2.2629   -1.4321    8.0658 C.2     1  UNL1        0.0000
      6 C           0.3111   -0.2333    5.5258 C.ar    1  UNL1        0.0000
      7 C           1.3935   -1.0839    5.7677 C.ar    1  UNL1        0.0000
      8 C           1.6398   -2.1990    4.9581 C.ar    1  UNL1        0.0000
      9 C           5.6348    1.0722    9.6515 C.ar    1  UNL1        0.0000
     10 C           5.4497    0.1338    8.6330 C.ar    1  UNL1        0.0000
     11 C           6.5242   -0.6104    8.1269 C.ar    1  UNL1        0.0000
     12 C           3.3252   -1.0331    8.7923 C.2     1  UNL1        0.0000
     13 H           3.5827   -1.3610    9.7824 H       1  UNL1        0.0000
     14 C           0.7744   -2.4495    3.9031 C.ar    1  UNL1        0.0000
     15 H           0.9540   -3.2896    3.2504 H       1  UNL1        0.0000
     16 C          -0.3139   -1.6317    3.6682 C.ar    1  UNL1        0.0000
     17 H          -0.9798   -1.8439    2.8446 H       1  UNL1        0.0000
     18 C          -0.5443   -0.5351    4.4750 C.ar    1  UNL1        0.0000
     19 H          -1.3971    0.0971    4.2785 H       1  UNL1        0.0000
     20 C           7.7837   -0.4002    8.6695 C.ar    1  UNL1        0.0000
     21 H           8.6256   -0.9644    8.3019 H       1  UNL1        0.0000
     22 C           7.9768    0.5149    9.6860 C.ar    1  UNL1        0.0000
     23 H           8.9636    0.6593   10.1012 H       1  UNL1        0.0000
     24 C           6.9101    1.2424   10.1727 C.ar    1  UNL1        0.0000
     25 H           7.0733    1.9507   10.9697 H       1  UNL1        0.0000
     26 C           0.0717    0.9953    6.3724 C.3     1  UNL1        0.0000
     27 H           0.8583    1.0616    7.1329 H       1  UNL1        0.0000
     28 C           2.8415   -3.0854    5.1909 C.3     1  UNL1        0.0000
     29 H           3.2598   -2.8616    6.1767 H       1  UNL1        0.0000
     30 C           4.4792    1.8766   10.1971 C.3     1  UNL1        0.0000
     31 H           3.6314    1.7791    9.5093 H       1  UNL1        0.0000
     32 C           6.3079   -1.6634    7.0655 C.3     1  UNL1        0.0000
     33 H           5.4520   -1.3612    6.4467 H       1  UNL1        0.0000
     34 C          -0.4576   -3.0467    7.5038 C.3     1  UNL1        0.0000
     35 H          -1.1754   -3.7019    7.9893 H       1  UNL1        0.0000
     36 H          -0.1011   -3.5515    6.6129 H       1  UNL1        0.0000
     37 H          -0.9908   -2.1622    7.1732 H       1  UNL1        0.0000
     38 C           1.8592   -4.2370    9.2041 C.3     1  UNL1        0.0000
     39 H           1.1646   -4.9690    9.6043 H       1  UNL1        0.0000
     40 H           2.6086   -4.0479    9.9667 H       1  UNL1        0.0000
     41 H           2.3643   -4.6924    8.3578 H       1  UNL1        0.0000
     42 C           0.1991   -1.8247   10.2719 C.3     1  UNL1        0.0000
     43 H          -0.2880   -0.8813   10.0437 H       1  UNL1        0.0000
     44 H           0.9619   -1.6231   11.0175 H       1  UNL1        0.0000
     45 H          -0.5413   -2.4741   10.7285 H       1  UNL1        0.0000
     46 C           0.1483    2.2538    5.5074 C.3     1  UNL1        0.0000
     47 H           1.1231    2.3108    5.0165 H       1  UNL1        0.0000
     48 H           0.0137    3.1428    6.1192 H       1  UNL1        0.0000
     49 H          -0.6249    2.2458    4.7454 H       1  UNL1        0.0000
     50 C          -1.2737    0.9181    7.0972 C.3     1  UNL1        0.0000
     51 H          -2.0957    0.8510    6.3884 H       1  UNL1        0.0000
     52 H          -1.4205    1.8073    7.7072 H       1  UNL1        0.0000
     53 H          -1.3080    0.0471    7.7480 H       1  UNL1        0.0000
     54 C           3.9120   -2.7851    4.1377 C.3     1  UNL1        0.0000
     55 H           3.5224   -2.9564    3.1368 H       1  UNL1        0.0000
     56 H           4.7784   -3.4261    4.2877 H       1  UNL1        0.0000
     57 H           4.2334   -1.7447    4.2034 H       1  UNL1        0.0000
     58 C           2.4830   -4.5726    5.1697 C.3     1  UNL1        0.0000
     59 H           1.6714   -4.7865    5.8615 H       1  UNL1        0.0000
     60 H           3.3488   -5.1627    5.4641 H       1  UNL1        0.0000
     61 H           2.1834   -4.8930    4.1752 H       1  UNL1        0.0000
     62 C           4.8373    3.3595   10.2964 C.3     1  UNL1        0.0000
     63 H           5.5907    3.5334   11.0603 H       1  UNL1        0.0000
     64 H           3.9543    3.9362   10.5658 H       1  UNL1        0.0000
     65 H           5.2211    3.7165    9.3436 H       1  UNL1        0.0000
     66 C           4.0563    1.3366   11.5663 C.3     1  UNL1        0.0000
     67 H           3.7477    0.2963   11.4944 H       1  UNL1        0.0000
     68 H           3.2223    1.9153   11.9579 H       1  UNL1        0.0000
     69 H           4.8829    1.3999   12.2709 H       1  UNL1        0.0000
     70 C           5.9766   -3.0028    7.7325 C.3     1  UNL1        0.0000
     71 H           6.7938   -3.3119    8.3820 H       1  UNL1        0.0000
     72 H           5.8270   -3.7698    6.9758 H       1  UNL1        0.0000
     73 H           5.0710   -2.9270    8.3310 H       1  UNL1        0.0000
     74 C           7.5030   -1.8206    6.1276 C.3     1  UNL1        0.0000
     75 H           7.8412   -0.8489    5.7767 H       1  UNL1        0.0000
     76 H           7.2123   -2.4102    5.2612 H       1  UNL1        0.0000
     77 H           8.3309   -2.3290    6.6168 H       1  UNL1        0.0000
@<TRIPOS>BOND
     1    17    16    1
     2    55    54    1
     3    15    14    1
     4    16    14   ar
     5    16    18   ar
     6    14     8   ar
     7    54    57    1
     8    54    56    1
     9    54    28    1
    10    61    58    1
    11    19    18    1
    12    18     6   ar
    13    49    46    1
    14     8    28    1
    15     8     7   ar
    16    47    46    1
    17    58    28    1
    18    58    60    1
    19    58    59    1
    20    28    29    1
    21    76    74    1
    22    46    48    1
    23    46    26    1
    24     6     7   ar
    25     6    26    1
    26     7     3    1
    27    75    74    1
    28    74    77    1
    29    74    32    1
    30    26    50    1
    31    26    27    1
    32    51    50    1
    33    33    32    1
    34     1     3    1
    35     1     4    1
    36    36    34    1
    37     3     5    1
    38    72    70    1
    39    32    70    1
    40    32    11    1
    41    50    52    1
    42    50    53    1
    43    37    34    1
    44    34    35    1
    45    34     2    1
    46    70    73    1
    47    70    71    1
    48     5     2    1
    49     5    12    2
    50    11    10   ar
    51    11    20   ar
    52     4    10    1
    53     4    12    1
    54    21    20    1
    55    41    38    1
    56    10     9   ar
    57    20    22   ar
    58     2    38    1
    59     2    42    1
    60    12    13    1
    61    38    39    1
    62    38    40    1
    63    65    62    1
    64    31    30    1
    65     9    24   ar
    66     9    30    1
    67    22    23    1
    68    22    24   ar
    69    43    42    1
    70    24    25    1
    71    30    62    1
    72    30    66    1
    73    42    45    1
    74    42    44    1
    75    62    64    1
    76    62    63    1
    77    67    66    1
    78    66    68    1
    79    66    69    1
