@<TRIPOS>MOLECULE
1
 77 79 0 0 0
SMALL
GASTEIGER

@<TRIPOS>ATOM
      1 P           3.8589    3.3638    3.9197 P.3     1  UNL1        0.0000
      2 SI          3.9555    7.7635    3.1868 Si      1  UNL1        0.0000
      3 N           4.2058    5.0095    4.2053 N.pl3   1  UNL1        0.0000
      4 N           3.2793    3.8101    2.3747 N.pl3   1  UNL1        0.0000
      5 C           3.8283    5.8811    3.1826 C.2     1  UNL1        0.0000
      6 C           4.2355    5.5704    6.5623 C.ar    1  UNL1        0.0000
      7 C           4.9227    5.3989    5.3574 C.ar    1  UNL1        0.0000
      8 C           6.3102    5.5667    5.2786 C.ar    1  UNL1        0.0000
      9 C           1.7685    2.6110    0.8858 C.ar    1  UNL1        0.0000
     10 C           3.0698    2.9194    1.2898 C.ar    1  UNL1        0.0000
     11 C           4.1829    2.4178    0.6010 C.ar    1  UNL1        0.0000
     12 C           3.3001    5.1754    2.1634 C.2     1  UNL1        0.0000
     13 H           2.9263    5.5712    1.2372 H       1  UNL1        0.0000
     14 C           6.9965    5.9172    6.4322 C.ar    1  UNL1        0.0000
     15 H           8.0691    6.0306    6.4044 H       1  UNL1        0.0000
     16 C           6.3265    6.1160    7.6239 C.ar    1  UNL1        0.0000
     17 H           6.8762    6.3933    8.5115 H       1  UNL1        0.0000
     18 C           4.9575    5.9470    7.6865 C.ar    1  UNL1        0.0000
     19 H           4.4470    6.1033    8.6249 H       1  UNL1        0.0000
     20 C           3.9625    1.6087   -0.5043 C.ar    1  UNL1        0.0000
     21 H           4.8014    1.2146   -1.0547 H       1  UNL1        0.0000
     22 C           2.6805    1.3072   -0.9211 C.ar    1  UNL1        0.0000
     23 H           2.5288    0.6814   -1.7884 H       1  UNL1        0.0000
     24 C           1.5943    1.8068   -0.2322 C.ar    1  UNL1        0.0000
     25 H           0.5984    1.5679   -0.5710 H       1  UNL1        0.0000
     26 C           2.7447    5.3425    6.6566 C.3     1  UNL1        0.0000
     27 H           2.3693    5.0357    5.6736 H       1  UNL1        0.0000
     28 C           7.0547    5.3287    3.9852 C.3     1  UNL1        0.0000
     29 H           6.3323    5.2871    3.1647 H       1  UNL1        0.0000
     30 C           0.5687    3.1513    1.6266 C.3     1  UNL1        0.0000
     31 H           0.9037    3.5395    2.5954 H       1  UNL1        0.0000
     32 C           5.5861    2.8015    1.0083 C.3     1  UNL1        0.0000
     33 H           5.5946    2.9826    2.0918 H       1  UNL1        0.0000
     34 C           4.7391    8.5410    4.7378 C.3     1  UNL1        0.0000
     35 H           5.7727    8.2415    4.8698 H       1  UNL1        0.0000
     36 H           4.2128    8.2671    5.6454 H       1  UNL1        0.0000
     37 H           4.7171    9.6242    4.6582 H       1  UNL1        0.0000
     38 C           2.1745    8.4340    3.0045 C.3     1  UNL1        0.0000
     39 H           1.5446    8.1369    3.8377 H       1  UNL1        0.0000
     40 H           1.7069    8.0642    2.0973 H       1  UNL1        0.0000
     41 H           2.1668    9.5185    2.9579 H       1  UNL1        0.0000
     42 C           4.9754    8.2598    1.6493 C.3     1  UNL1        0.0000
     43 H           5.0754    9.3384    1.5783 H       1  UNL1        0.0000
     44 H           4.5008    7.9158    0.7353 H       1  UNL1        0.0000
     45 H           5.9756    7.8385    1.6748 H       1  UNL1        0.0000
     46 C           2.4463    4.2150    7.6454 C.3     1  UNL1        0.0000
     47 H           2.9571    3.3003    7.3341 H       1  UNL1        0.0000
     48 H           1.3772    4.0201    7.6864 H       1  UNL1        0.0000
     49 H           2.7819    4.4783    8.6436 H       1  UNL1        0.0000
     50 C           2.0099    6.6230    7.0588 C.3     1  UNL1        0.0000
     51 H           2.3437    6.9754    8.0320 H       1  UNL1        0.0000
     52 H           0.9388    6.4375    7.1116 H       1  UNL1        0.0000
     53 H           2.1853    7.4100    6.3286 H       1  UNL1        0.0000
     54 C           7.7817    3.9824    4.0511 C.3     1  UNL1        0.0000
     55 H           8.3325    3.8065    3.1294 H       1  UNL1        0.0000
     56 H           7.0696    3.1678    4.1917 H       1  UNL1        0.0000
     57 H           8.4824    3.9667    4.8829 H       1  UNL1        0.0000
     58 C           8.0467    6.4494    3.6680 C.3     1  UNL1        0.0000
     59 H           7.5560    7.4199    3.6895 H       1  UNL1        0.0000
     60 H           8.4649    6.2988    2.6746 H       1  UNL1        0.0000
     61 H           8.8697    6.4621    4.3779 H       1  UNL1        0.0000
     62 C          -0.0671    4.3002    0.8385 C.3     1  UNL1        0.0000
     63 H           0.6417    5.1130    0.6979 H       1  UNL1        0.0000
     64 H          -0.9325    4.6886    1.3715 H       1  UNL1        0.0000
     65 H          -0.3900    3.9549   -0.1414 H       1  UNL1        0.0000
     66 C          -0.4605    2.0522    1.8897 C.3     1  UNL1        0.0000
     67 H          -0.9218    1.7135    0.9656 H       1  UNL1        0.0000
     68 H          -1.2516    2.4325    2.5333 H       1  UNL1        0.0000
     69 H           0.0152    1.2015    2.3719 H       1  UNL1        0.0000
     70 C           6.6117    1.7043    0.7305 C.3     1  UNL1        0.0000
     71 H           6.2539    0.7461    1.0976 H       1  UNL1        0.0000
     72 H           7.5423    1.9365    1.2433 H       1  UNL1        0.0000
     73 H           6.8271    1.6191   -0.3324 H       1  UNL1        0.0000
     74 C           5.9914    4.0962    0.2951 C.3     1  UNL1        0.0000
     75 H           5.9545    3.9579   -0.7841 H       1  UNL1        0.0000
     76 H           7.0057    4.3739    0.5736 H       1  UNL1        0.0000
     77 H           5.3246    4.9139    0.5605 H       1  UNL1        0.0000
@<TRIPOS>BOND
     1    23    22    1
     2    21    20    1
     3    22    20   ar
     4    22    24   ar
     5    75    74    1
     6    25    24    1
     7    20    11   ar
     8    73    70    1
     9    24     9   ar
    10    65    62    1
    11    74    77    1
    12    74    76    1
    13    74    32    1
    14    11    32    1
    15    11    10   ar
    16    63    62    1
    17    70    32    1
    18    70    71    1
    19    70    72    1
    20    44    42    1
    21    62    64    1
    22    62    30    1
    23     9    10   ar
    24     9    30    1
    25    67    66    1
    26    32    33    1
    27    13    12    1
    28    10     4    1
    29    43    42    1
    30    30    66    1
    31    30    31    1
    32    42    45    1
    33    42     2    1
    34    66    69    1
    35    66    68    1
    36    40    38    1
    37    12     4    1
    38    12     5    2
    39     4     1    1
    40    60    58    1
    41    41    38    1
    42    38     2    1
    43    38    39    1
    44    55    54    1
    45    29    28    1
    46     5     2    1
    47     5     3    1
    48     2    34    1
    49    58    59    1
    50    58    28    1
    51    58    61    1
    52     1     3    1
    53    28    54    1
    54    28     8    1
    55    54    56    1
    56    54    57    1
    57     3     7    1
    58    37    34    1
    59    34    35    1
    60    34    36    1
    61     8     7   ar
    62     8    14   ar
    63     7     6   ar
    64    27    26    1
    65    53    50    1
    66    15    14    1
    67    14    16   ar
    68     6    26    1
    69     6    18   ar
    70    26    50    1
    71    26    46    1
    72    50    52    1
    73    50    51    1
    74    47    46    1
    75    16    18   ar
    76    16    17    1
    77    46    48    1
    78    46    49    1
    79    18    19    1
