@<TRIPOS>MOLECULE
1
 59 61 0 0 0
SMALL
GASTEIGER

@<TRIPOS>ATOM
      1 P          -1.1557    1.9801    4.0834 P.3     1  UNL1        0.0000
      2 SI         -2.1855    4.5466    2.9086 Si      1  UNL1        0.0000
      3 SI          0.3841    3.0304    1.5363 Si      1  UNL1        0.0000
      4 C          -0.3270    0.4000    3.6406 C.2     1  UNL1        0.0000
      5 C          -2.3888    0.2485    2.8731 C.2     1  UNL1        0.0000
      6 C          -0.6042    3.4460    3.1441 C.3     1  UNL1        0.0000
      7 H           0.0644    3.9780    3.8279 H       1  UNL1        0.0000
      8 C          -1.5757    6.3548    2.9226 C.3     1  UNL1        0.0000
      9 H          -0.8339    6.5503    2.1580 H       1  UNL1        0.0000
     10 H          -1.1403    6.6199    3.8810 H       1  UNL1        0.0000
     11 H          -2.4100    7.0252    2.7491 H       1  UNL1        0.0000
     12 C          -3.5113    4.4016    4.2720 C.3     1  UNL1        0.0000
     13 H          -4.5037    4.5500    3.8554 H       1  UNL1        0.0000
     14 H          -3.3752    5.1447    5.0512 H       1  UNL1        0.0000
     15 H          -3.4937    3.4209    4.7375 H       1  UNL1        0.0000
     16 C          -3.0612    4.1313    1.2637 C.3     1  UNL1        0.0000
     17 H          -3.3834    3.0958    1.2495 H       1  UNL1        0.0000
     18 H          -2.4289    4.2962    0.3991 H       1  UNL1        0.0000
     19 H          -3.9429    4.7539    1.1469 H       1  UNL1        0.0000
     20 C           0.6032    4.6434    0.5373 C.3     1  UNL1        0.0000
     21 H           1.1468    5.3885    1.1089 H       1  UNL1        0.0000
     22 H          -0.3343    5.0868    0.2245 H       1  UNL1        0.0000
     23 H           1.1827    4.4397   -0.3571 H       1  UNL1        0.0000
     24 C          -0.4627    1.7110    0.4552 C.3     1  UNL1        0.0000
     25 H          -0.0282    1.7019   -0.5401 H       1  UNL1        0.0000
     26 H          -1.5274    1.8855    0.3490 H       1  UNL1        0.0000
     27 H          -0.3370    0.7166    0.8727 H       1  UNL1        0.0000
     28 C           2.1711    2.4606    1.9073 C.3     1  UNL1        0.0000
     29 H           2.7777    2.5774    1.0140 H       1  UNL1        0.0000
     30 H           2.2262    1.4176    2.2003 H       1  UNL1        0.0000
     31 H           2.6384    3.0504    2.6902 H       1  UNL1        0.0000
     32 C           0.9685   -0.0420    4.1030 C.ar    1  UNL1        0.0000
     33 C           1.3406   -1.3841    4.0059 C.ar    1  UNL1        0.0000
     34 H           0.6479   -2.0810    3.5608 H       1  UNL1        0.0000
     35 C           2.5674   -1.7952    4.4885 C.ar    1  UNL1        0.0000
     36 H           2.8518   -2.8346    4.4188 H       1  UNL1        0.0000
     37 C           3.4312   -0.8793    5.0699 C.ar    1  UNL1        0.0000
     38 H           4.3857   -1.2068    5.4541 H       1  UNL1        0.0000
     39 C           3.0724    0.4576    5.1600 C.ar    1  UNL1        0.0000
     40 H           3.7462    1.1702    5.6114 H       1  UNL1        0.0000
     41 C           1.8487    0.8747    4.6774 C.ar    1  UNL1        0.0000
     42 H           1.5602    1.9172    4.7237 H       1  UNL1        0.0000
     43 C          -3.4055   -0.5156    2.2364 C.ar    1  UNL1        0.0000
     44 C          -3.2467   -1.7794    1.6729 C.ar    1  UNL1        0.0000
     45 H          -2.3285   -2.3299    1.6553 H       1  UNL1        0.0000
     46 C          -4.4783   -2.1589    1.1504 C.ar    1  UNL1        0.0000
     47 H          -4.7076   -3.0750    0.6429 H       1  UNL1        0.0000
     48 C          -5.3707   -1.1325    1.4083 C.ar    1  UNL1        0.0000
     49 C          -6.8153   -1.0384    1.0769 C.3     1  UNL1        0.0000
     50 H          -7.4154   -0.9335    1.9814 H       1  UNL1        0.0000
     51 H          -7.1308   -1.9358    0.5526 H       1  UNL1        0.0000
     52 H          -7.0142   -0.1742    0.4419 H       1  UNL1        0.0000
     53 C          -5.3403    1.0636    2.5287 C.3     1  UNL1        0.0000
     54 H          -5.7827    1.6138    1.6951 H       1  UNL1        0.0000
     55 H          -4.5876    1.6825    3.0113 H       1  UNL1        0.0000
     56 H          -6.1281    0.8263    3.2472 H       1  UNL1        0.0000
     57 N          -2.5225    1.4901    3.2809 N.2     1  UNL1        0.5000
     58 N          -1.1813   -0.3924    3.0800 N.2     1  UNL1        0.5000
     59 N          -4.7160   -0.1416    2.0577 N.ar    1  UNL1        0.0000
@<TRIPOS>BOND
     1    25    24    1
     2    23    20    1
     3    22    20    1
     4    26    24    1
     5    18    16    1
     6    52    49    1
     7    24    27    1
     8    24     3    1
     9    20    21    1
    10    20     3    1
    11    51    49    1
    12    47    46    1
    13    29    28    1
    14    49    48    1
    15    49    50    1
    16    19    16    1
    17    46    48   ar
    18    46    44   ar
    19    17    16    1
    20    16     2    1
    21    48    59   ar
    22     3    28    1
    23     3     6    1
    24    45    44    1
    25    44    43   ar
    26    54    53    1
    27    28    30    1
    28    28    31    1
    29    59    43   ar
    30    59    53    1
    31     9     8    1
    32    43     5    1
    33    53    55    1
    34    53    56    1
    35    11     8    1
    36     5    58    1
    37     5    57    2
    38     2     8    1
    39     2     6    1
    40     2    12    1
    41     8    10    1
    42    58     4    2
    43     6     7    1
    44     6     1    1
    45    57     1    1
    46    34    33    1
    47     4     1    1
    48     4    32    1
    49    13    12    1
    50    33    32   ar
    51    33    35   ar
    52    32    41   ar
    53    12    15    1
    54    12    14    1
    55    36    35    1
    56    35    37   ar
    57    41    42    1
    58    41    39   ar
    59    37    39   ar
    60    37    38    1
    61    39    40    1
