@<TRIPOS>MOLECULE
1
 52 54 0 0 0
SMALL
GASTEIGER

@<TRIPOS>ATOM
      1 P           4.1858    1.7931    3.9361 P.3     1  UNL1        0.0000
      2 SI          5.6252    2.9790    1.4032 Si      1  UNL1        0.0000
      3 SI          2.9397    4.2696    2.7960 Si      1  UNL1        0.0000
      4 S           0.9952   -2.8151    0.8999 S.2     1  UNL1        0.0000
      5 N           2.8870    1.1761    3.1121 N.2     1  UNL1        0.5000
      6 N           4.3858   -0.5867    2.9762 N.2     1  UNL1        0.5000
      7 C           5.1614    0.2901    3.5374 C.2     1  UNL1        0.0000
      8 C           3.1454   -0.0472    2.7330 C.2     1  UNL1        0.0000
      9 C           4.6130    3.3069    3.0168 C.3     1  UNL1        0.0000
     10 H           5.2354    3.8859    3.7054 H       1  UNL1        0.0000
     11 C           7.4554    2.5604    1.7655 C.3     1  UNL1        0.0000
     12 H           8.0433    2.7146    0.8655 H       1  UNL1        0.0000
     13 H           7.5976    1.5289    2.0705 H       1  UNL1        0.0000
     14 H           7.8798    3.1961    2.5369 H       1  UNL1        0.0000
     15 C           4.8831    1.5855    0.3384 C.3     1  UNL1        0.0000
     16 H           5.2653    1.6372   -0.6768 H       1  UNL1        0.0000
     17 H           3.8013    1.6381    0.2878 H       1  UNL1        0.0000
     18 H           5.1434    0.6077    0.7330 H       1  UNL1        0.0000
     19 C           5.6942    4.6055    0.4061 C.3     1  UNL1        0.0000
     20 H           6.1804    5.3928    0.9728 H       1  UNL1        0.0000
     21 H           4.7180    4.9683    0.1076 H       1  UNL1        0.0000
     22 H           6.2769    4.4535   -0.4965 H       1  UNL1        0.0000
     23 C           2.0878    3.7795    1.1610 C.3     1  UNL1        0.0000
     24 H           1.1841    4.3655    1.0249 H       1  UNL1        0.0000
     25 H           1.8010    2.7331    1.1841 H       1  UNL1        0.0000
     26 H           2.7131    3.9358    0.2896 H       1  UNL1        0.0000
     27 C           1.6542    3.9757    4.1676 C.3     1  UNL1        0.0000
     28 H           1.9159    4.4609    5.1016 H       1  UNL1        0.0000
     29 H           1.5364    2.9140    4.3566 H       1  UNL1        0.0000
     30 H           0.6864    4.3655    3.8643 H       1  UNL1        0.0000
     31 C           3.3960    6.1220    2.8271 C.3     1  UNL1        0.0000
     32 H           4.1125    6.3877    2.0595 H       1  UNL1        0.0000
     33 H           3.8151    6.4124    3.7854 H       1  UNL1        0.0000
     34 H           2.5074    6.7222    2.6676 H       1  UNL1        0.0000
     35 C           6.4856   -0.0244    4.0187 C.ar    1  UNL1        0.0000
     36 C           7.2841    0.9843    4.5588 C.ar    1  UNL1        0.0000
     37 H           6.9016    1.9972    4.5851 H       1  UNL1        0.0000
     38 C           8.5455    0.6930    5.0366 C.ar    1  UNL1        0.0000
     39 H           9.1569    1.4759    5.4592 H       1  UNL1        0.0000
     40 C           9.0225   -0.6082    4.9802 C.ar    1  UNL1        0.0000
     41 H          10.0066   -0.8367    5.3613 H       1  UNL1        0.0000
     42 C           8.2390   -1.6154    4.4372 C.ar    1  UNL1        0.0000
     43 H           8.6149   -2.6267    4.3948 H       1  UNL1        0.0000
     44 C           6.9765   -1.3302    3.9562 C.ar    1  UNL1        0.0000
     45 H           6.3472   -2.0993    3.5366 H       1  UNL1        0.0000
     46 C           2.1520   -0.8593    2.0779 C.ar    1  UNL1        0.0000
     47 C           0.8192   -0.4296    1.8169 C.ar    1  UNL1        0.0000
     48 H           0.4553    0.5398    2.1035 H       1  UNL1        0.0000
     49 C           0.0866   -1.3765    1.1897 C.ar    1  UNL1        0.0000
     50 H          -0.9370   -1.3317    0.8755 H       1  UNL1        0.0000
     51 C           2.3783   -2.1349    1.6338 C.ar    1  UNL1        0.0000
     52 H           3.2894   -2.6930    1.7085 H       1  UNL1        0.0000
@<TRIPOS>BOND
     1    16    15    1
     2    22    19    1
     3    21    19    1
     4    17    15    1
     5    26    23    1
     6    15    18    1
     7    15     2    1
     8    19    20    1
     9    19     2    1
    10    12    11    1
    11    50    49    1
    12     4    49   ar
    13     4    51   ar
    14    24    23    1
    15    23    25    1
    16    23     3    1
    17    49    47   ar
    18     2    11    1
    19     2     9    1
    20    51    52    1
    21    51    46   ar
    22    11    13    1
    23    11    14    1
    24    47    46   ar
    25    47    48    1
    26    32    31    1
    27    46     8    1
    28    34    31    1
    29     8     6    1
    30     8     5    2
    31     3    31    1
    32     3     9    1
    33     3    27    1
    34    31    33    1
    35     6     7    2
    36     9    10    1
    37     9     1    1
    38     5     1    1
    39    45    44    1
    40     7     1    1
    41     7    35    1
    42    30    27    1
    43    44    35   ar
    44    44    42   ar
    45    35    36   ar
    46    27    29    1
    47    27    28    1
    48    43    42    1
    49    42    40   ar
    50    36    37    1
    51    36    38   ar
    52    40    38   ar
    53    40    41    1
    54    38    39    1
