@<TRIPOS>MOLECULE
1
 13 12 0 0 0
SMALL
GASTEIGER

@<TRIPOS>ATOM
      1 P          -0.4872    6.5663    9.4052 P.3     1  UNL1       -0.1154
      2 C          -0.1077    8.1081   10.3222 C.3     1  UNL1       -0.0447
      3 H          -0.9826    8.7574   10.3493 H       1  UNL1        0.0277
      4 H           0.7070    8.6151    9.8087 H       1  UNL1        0.0277
      5 H           0.2113    7.8740   11.3308 H       1  UNL1        0.0277
      6 C          -1.9632    5.9303   10.2743 C.3     1  UNL1       -0.0447
      7 H          -2.6793    6.7283   10.4705 H       1  UNL1        0.0277
      8 H          -1.6513    5.4692   11.2091 H       1  UNL1        0.0277
      9 H          -2.4225    5.1618    9.6533 H       1  UNL1        0.0277
     10 C          -1.3070    7.3755    7.9493 C.3     1  UNL1       -0.0447
     11 H          -2.0468    8.1060    8.2739 H       1  UNL1        0.0277
     12 H          -1.7963    6.6269    7.3300 H       1  UNL1        0.0277
     13 H          -0.5472    7.8787    7.3522 H       1  UNL1        0.0277
@<TRIPOS>BOND
     1    12    10    1
     2    13    10    1
     3    10    11    1
     4    10     1    1
     5     1     6    1
     6     1     2    1
     7     9     6    1
     8     4     2    1
     9     6     7    1
    10     6     8    1
    11     2     3    1
    12     2     5    1
