@<TRIPOS>MOLECULE
1
 24 23 0 0 0
SMALL
GASTEIGER

@<TRIPOS>ATOM
      1 P           1.6720    3.5181    6.2737 P.3     1  UNL1        0.0000
      2 SI          3.5192    6.4515    7.1052 Si      1  UNL1        0.0000
      3 O          -0.2063    5.7942    6.0320 O.3     1  UNL1        0.0000
      4 C           3.9009    7.2598    5.4187 C.3     1  UNL1        0.0000
      5 H           4.7393    7.9466    5.4890 H       1  UNL1        0.0000
      6 H           3.0539    7.8160    5.0276 H       1  UNL1        0.0000
      7 H           4.1578    6.5023    4.6834 H       1  UNL1        0.0000
      8 C           2.9246    7.7628    8.3615 C.3     1  UNL1        0.0000
      9 H           2.1541    8.4051    7.9471 H       1  UNL1        0.0000
     10 H           3.7512    8.4001    8.6596 H       1  UNL1        0.0000
     11 H           2.5256    7.3080    9.2631 H       1  UNL1        0.0000
     12 C           5.0866    5.5978    7.7606 C.3     1  UNL1        0.0000
     13 H           5.8534    6.3334    7.9864 H       1  UNL1        0.0000
     14 H           5.4985    4.9180    7.0217 H       1  UNL1        0.0000
     15 H           4.8987    5.0289    8.6648 H       1  UNL1        0.0000
     16 C          -0.1699    7.2038    6.2563 C.3     1  UNL1        0.0000
     17 H           0.6983    7.6264    5.7369 H       1  UNL1        0.0000
     18 H          -0.0567    7.3895    7.3315 H       1  UNL1        0.0000
     19 C          -1.4648    7.7972    5.7325 C.3     1  UNL1        0.0000
     20 H          -1.4703    8.8713    5.8941 H       1  UNL1        0.0000
     21 H          -2.3129    7.3542    6.2480 H       1  UNL1        0.0000
     22 H          -1.5623    7.5965    4.6689 H       1  UNL1        0.0000
     23 C           0.8898    5.1298    6.3358 C.3     1  UNL1        0.0000
     24 C           2.1371    5.2088    6.8177 C.3     1  UNL1        0.0000
@<TRIPOS>BOND
     1    22    19    1
     2     7     4    1
     3     6     4    1
     4     4     5    1
     5     4     2    1
     6    19    20    1
     7    19    21    1
     8    19    16    1
     9    17    16    1
    10     3    16    1
    11     3    23    1
    12    16    18    1
    13     1    23    1
    14    23    24    1
    15    24     2    1
    16    14    12    1
    17     2    12    1
    18     2     8    1
    19    12    13    1
    20    12    15    1
    21     9     8    1
    22     8    10    1
    23     8    11    1
