@<TRIPOS>MOLECULE
1
 40 40 0 0 0
SMALL
GASTEIGER

@<TRIPOS>ATOM
      1 P           3.1633    3.8914    2.9354 P.3     1  UNL1        0.0000
      2 N           4.4447    3.4412    3.9267 N.3     1  UNL1        0.0000
      3 SI          3.9461    2.7017    5.4579 Si      1  UNL1        0.0000
      4 C           5.3717    1.7001    6.2092 C.3     1  UNL1        0.0000
      5 C           3.4874    4.1302    6.6465 C.3     1  UNL1        0.0000
      6 C           2.4395    1.5669    5.2115 C.3     1  UNL1        0.0000
      7 SI          6.0992    3.5692    3.3302 Si      1  UNL1        0.0000
      8 C           7.0485    4.7618    4.4787 C.3     1  UNL1        0.0000
      9 C           6.9935    1.8867    3.2531 C.3     1  UNL1        0.0000
     10 C           6.0328    4.2815    1.5704 C.3     1  UNL1        0.0000
     11 C           3.4382    5.6739    2.6583 C.ar    1  UNL1        0.0000
     12 C           3.1107    6.3008    1.4648 C.ar    1  UNL1        0.0000
     13 C           3.3253    7.6587    1.3066 C.ar    1  UNL1        0.0000
     14 C           3.8691    8.4006    2.3414 C.ar    1  UNL1        0.0000
     15 C           4.1866    7.7825    3.5407 C.ar    1  UNL1        0.0000
     16 C           3.9699    6.4269    3.6999 C.ar    1  UNL1        0.0000
     17 H           2.2155    4.0652    3.9417 H       1  UNL1        0.0000
     18 H           5.0769    1.3624    7.1963 H       1  UNL1        0.0000
     19 H           6.2779    2.2831    6.3175 H       1  UNL1        0.0000
     20 H           5.6019    0.8231    5.6173 H       1  UNL1        0.0000
     21 H           3.1391    3.7332    7.5946 H       1  UNL1        0.0000
     22 H           2.6950    4.7560    6.2447 H       1  UNL1        0.0000
     23 H           4.3403    4.7688    6.8585 H       1  UNL1        0.0000
     24 H           1.8667    1.4709    6.1288 H       1  UNL1        0.0000
     25 H           2.7355    0.5677    4.9073 H       1  UNL1        0.0000
     26 H           1.7732    1.9568    4.4430 H       1  UNL1        0.0000
     27 H           6.8838    4.5252    5.5244 H       1  UNL1        0.0000
     28 H           6.7586    5.7960    4.3228 H       1  UNL1        0.0000
     29 H           8.1137    4.6885    4.2880 H       1  UNL1        0.0000
     30 H           7.4927    1.6614    4.1882 H       1  UNL1        0.0000
     31 H           7.7548    1.9042    2.4793 H       1  UNL1        0.0000
     32 H           6.3168    1.0688    3.0333 H       1  UNL1        0.0000
     33 H           5.1832    3.8458    1.0498 H       1  UNL1        0.0000
     34 H           6.9308    4.0437    1.0089 H       1  UNL1        0.0000
     35 H           5.9167    5.3604    1.5650 H       1  UNL1        0.0000
     36 H           2.6653    5.7280    0.6648 H       1  UNL1        0.0000
     37 H           3.0655    8.1403    0.3749 H       1  UNL1        0.0000
     38 H           4.0389    9.4600    2.2164 H       1  UNL1        0.0000
     39 H           4.5994    8.3622    4.3539 H       1  UNL1        0.0000
     40 H           4.2136    5.9338    4.6283 H       1  UNL1        0.0000
@<TRIPOS>BOND
     1    37    13    1
     2    36    12    1
     3    34    10    1
     4    33    10    1
     5    13    12   ar
     6    13    14   ar
     7    12    11   ar
     8    35    10    1
     9    10     7    1
    10    38    14    1
    11    14    15   ar
    12    31     9    1
    13    11     1    1
    14    11    16   ar
    15     1     2    1
    16     1    17    1
    17    32     9    1
    18     9     7    1
    19     9    30    1
    20     7     2    1
    21     7     8    1
    22    15    16   ar
    23    15    39    1
    24    16    40    1
    25     2     3    1
    26    29     8    1
    27    28     8    1
    28    26     6    1
    29     8    27    1
    30    25     6    1
    31     6     3    1
    32     6    24    1
    33     3     4    1
    34     3     5    1
    35    20     4    1
    36     4    19    1
    37     4    18    1
    38    22     5    1
    39     5    23    1
    40     5    21    1
