@<TRIPOS>MOLECULE
1
 34 36 0 0 0
SMALL
GASTEIGER

@<TRIPOS>ATOM
      1 P          14.0690   11.7692    7.0373 P.3     1  UNL1       -0.0131
      2 C          12.6755   12.1448    8.1583 C.ar    1  UNL1       -0.0147
      3 C          12.4153   11.1898    9.1372 C.ar    1  UNL1       -0.0535
      4 C          11.3452   11.3496    9.9970 C.ar    1  UNL1       -0.0611
      5 C          10.5319   12.4666    9.8918 C.ar    1  UNL1       -0.0617
      6 C          10.7888   13.4190    8.9206 C.ar    1  UNL1       -0.0611
      7 C          11.8527   13.2596    8.0491 C.ar    1  UNL1       -0.0535
      8 C          14.1697   13.2937    6.0444 C.ar    1  UNL1       -0.0147
      9 C          14.5532   14.4412    6.7373 C.ar    1  UNL1       -0.0535
     10 C          14.7102   15.6414    6.0728 C.ar    1  UNL1       -0.0611
     11 C          14.5080   15.7032    4.7016 C.ar    1  UNL1       -0.0617
     12 C          14.1486   14.5627    4.0043 C.ar    1  UNL1       -0.0611
     13 C          13.9773   13.3594    4.6702 C.ar    1  UNL1       -0.0535
     14 C          13.2066   10.5970    5.9356 C.ar    1  UNL1       -0.0147
     15 C          11.9955   10.9330    5.3349 C.ar    1  UNL1       -0.0535
     16 C          11.3590   10.0223    4.5138 C.ar    1  UNL1       -0.0611
     17 C          11.9170    8.7713    4.2950 C.ar    1  UNL1       -0.0617
     18 C          13.1080    8.4258    4.9100 C.ar    1  UNL1       -0.0611
     19 C          13.7504    9.3361    5.7313 C.ar    1  UNL1       -0.0535
     20 H          13.0659   10.3284    9.2136 H       1  UNL1        0.0624
     21 H          11.1423   10.6020   10.7491 H       1  UNL1        0.0618
     22 H           9.6959   12.5947   10.5642 H       1  UNL1        0.0618
     23 H          10.1538   14.2891    8.8354 H       1  UNL1        0.0618
     24 H          12.0404   14.0071    7.2911 H       1  UNL1        0.0624
     25 H          14.7294   14.3621    7.8038 H       1  UNL1        0.0624
     26 H          14.9963   16.5299    6.6168 H       1  UNL1        0.0618
     27 H          14.6355   16.6390    4.1776 H       1  UNL1        0.0618
     28 H          13.9996   14.6080    2.9349 H       1  UNL1        0.0618
     29 H          13.6913   12.4742    4.1191 H       1  UNL1        0.0624
     30 H          11.5566   11.9043    5.5192 H       1  UNL1        0.0624
     31 H          10.4214   10.2841    4.0447 H       1  UNL1        0.0618
     32 H          11.4148    8.0637    3.6515 H       1  UNL1        0.0618
     33 H          13.5330    7.4447    4.7549 H       1  UNL1        0.0618
     34 H          14.6633    9.0663    6.2452 H       1  UNL1        0.0624
@<TRIPOS>BOND
     1    28    12    1
     2    32    17    1
     3    12    13   ar
     4    12    11   ar
     5    31    16    1
     6    29    13    1
     7    27    11    1
     8    17    16   ar
     9    17    18   ar
    10    16    15   ar
    11    13     8   ar
    12    11    10   ar
    13    33    18    1
    14    18    19   ar
    15    15    30    1
    16    15    14   ar
    17    19    14   ar
    18    19    34    1
    19    14     1    1
    20     8     9   ar
    21     8     1    1
    22    10    26    1
    23    10     9   ar
    24     9    25    1
    25     1     2    1
    26    24     7    1
    27     7     2   ar
    28     7     6   ar
    29     2     3   ar
    30    23     6    1
    31     6     5   ar
    32     3    20    1
    33     3     4   ar
    34     5     4   ar
    35     5    22    1
    36     4    21    1
