@<TRIPOS>MOLECULE
1
 34 36 0 0 0
SMALL
GASTEIGER

@<TRIPOS>ATOM
      1 P          -1.5253   -0.7486   11.2561 P.3     1  UNL1       -0.0131
      2 C          -0.9892   -2.3396   10.5334 C.ar    1  UNL1       -0.0147
      3 C          -1.1231   -2.5701    9.1666 C.ar    1  UNL1       -0.0535
      4 C          -0.6577   -3.7476    8.6076 C.ar    1  UNL1       -0.0611
      5 C          -0.0516   -4.7058    9.4030 C.ar    1  UNL1       -0.0617
      6 C           0.1004   -4.4767   10.7619 C.ar    1  UNL1       -0.0611
      7 C          -0.3556   -3.2976   11.3248 C.ar    1  UNL1       -0.0535
      8 C          -2.8176   -0.2116   10.0777 C.ar    1  UNL1       -0.0147
      9 C          -2.8016    1.0254    9.4497 C.ar    1  UNL1       -0.0535
     10 C          -3.8342    1.3914    8.6022 C.ar    1  UNL1       -0.0611
     11 C          -4.8899    0.5247    8.3787 C.ar    1  UNL1       -0.0617
     12 C          -4.9132   -0.7126    9.0048 C.ar    1  UNL1       -0.0611
     13 C          -3.8871   -1.0788    9.8536 C.ar    1  UNL1       -0.0535
     14 C          -2.6694   -1.1890   12.6143 C.ar    1  UNL1       -0.0147
     15 C          -3.3291   -0.1097   13.2004 C.ar    1  UNL1       -0.0535
     16 C          -4.2539   -0.3134   14.2055 C.ar    1  UNL1       -0.0611
     17 C          -4.5346   -1.6030   14.6314 C.ar    1  UNL1       -0.0617
     18 C          -3.8986   -2.6795   14.0375 C.ar    1  UNL1       -0.0611
     19 C          -2.9695   -2.4799   13.0293 C.ar    1  UNL1       -0.0535
     20 H          -1.5966   -1.8274    8.5425 H       1  UNL1        0.0624
     21 H          -0.7726   -3.9196    7.5482 H       1  UNL1        0.0618
     22 H           0.3026   -5.6273    8.9668 H       1  UNL1        0.0618
     23 H           0.5750   -5.2189   11.3871 H       1  UNL1        0.0618
     24 H          -0.2150   -3.1174   12.3802 H       1  UNL1        0.0624
     25 H          -1.9731    1.6990    9.6195 H       1  UNL1        0.0624
     26 H          -3.8143    2.3556    8.1169 H       1  UNL1        0.0618
     27 H          -5.6944    0.8111    7.7190 H       1  UNL1        0.0618
     28 H          -5.7351   -1.3906    8.8324 H       1  UNL1        0.0618
     29 H          -3.9058   -2.0425   10.3440 H       1  UNL1        0.0624
     30 H          -3.1111    0.8906   12.8492 H       1  UNL1        0.0624
     31 H          -4.7598    0.5280   14.6550 H       1  UNL1        0.0618
     32 H          -5.2548   -1.7667   15.4181 H       1  UNL1        0.0618
     33 H          -4.1288   -3.6849   14.3566 H       1  UNL1        0.0618
     34 H          -2.4928   -3.3300   12.5659 H       1  UNL1        0.0624
@<TRIPOS>BOND
     1    21     4    1
     2    27    11    1
     3    26    10    1
     4    11    10   ar
     5    11    12   ar
     6    20     3    1
     7    10     9   ar
     8     4     3   ar
     9     4     5   ar
    10    28    12    1
    11    22     5    1
    12    12    13   ar
    13     3     2   ar
    14     5     6   ar
    15     9    25    1
    16     9     8   ar
    17    13     8   ar
    18    13    29    1
    19     8     1    1
    20     2     1    1
    21     2     7   ar
    22     6     7   ar
    23     6    23    1
    24     1    14    1
    25     7    24    1
    26    34    19    1
    27    14    19   ar
    28    14    15   ar
    29    30    15    1
    30    19    18   ar
    31    15    16   ar
    32    18    33    1
    33    18    17   ar
    34    16    17   ar
    35    16    31    1
    36    17    32    1
