@<TRIPOS>MOLECULE
1
 25 24 0 0 0
SMALL
GASTEIGER

@<TRIPOS>ATOM
      1 P           6.6116    4.1421    5.9189 P.3     1  UNL1       -0.1038
      2 C           6.2215    5.1952    7.3613 C.3     1  UNL1       -0.0438
      3 H           6.9803    5.9656    7.4488 H       1  UNL1        0.0278
      4 H           6.1840    4.6105    8.2802 H       1  UNL1        0.0278
      5 H           5.2707    5.6848    7.1821 H       1  UNL1        0.0278
      6 C           5.2452    2.8676    6.0470 C.3     1  UNL1       -0.0261
      7 H           5.3535    2.2456    5.1545 H       1  UNL1        0.0343
      8 C           3.9244    3.6248    5.9562 C.3     1  UNL1       -0.0587
      9 H           3.6456    4.0210    6.9291 H       1  UNL1        0.0236
     10 H           3.1203    2.9754    5.6123 H       1  UNL1        0.0236
     11 H           4.0331    4.4585    5.2656 H       1  UNL1        0.0236
     12 C           8.1066    3.2641    6.6174 C.3     1  UNL1       -0.0261
     13 H           7.8186    2.8120    7.5733 H       1  UNL1        0.0343
     14 C           8.5640    2.1906    5.6444 C.3     1  UNL1       -0.0587
     15 H           7.8026    1.4227    5.5207 H       1  UNL1        0.0236
     16 H           9.4786    1.7104    5.9910 H       1  UNL1        0.0236
     17 H           8.7577    2.6646    4.6868 H       1  UNL1        0.0236
     18 C           9.2295    4.2648    6.8563 C.3     1  UNL1       -0.0587
     19 H           9.3619    4.8774    5.9651 H       1  UNL1        0.0236
     20 H          10.1626    3.7445    7.0673 H       1  UNL1        0.0236
     21 H           9.0089    4.9223    7.6926 H       1  UNL1        0.0236
     22 C           5.2676    1.9594    7.2722 C.3     1  UNL1       -0.0587
     23 H           6.1364    1.3060    7.2767 H       1  UNL1        0.0236
     24 H           4.3775    1.3302    7.2678 H       1  UNL1        0.0236
     25 H           5.2597    2.5386    8.1925 H       1  UNL1        0.0236
@<TRIPOS>BOND
     1    17    14    1
     2     7     6    1
     3    11     8    1
     4    15    14    1
     5    10     8    1
     6    14    16    1
     7    14    12    1
     8     1     6    1
     9     1    12    1
    10     1     2    1
    11     8     6    1
    12     8     9    1
    13    19    18    1
    14     6    22    1
    15    12    18    1
    16    12    13    1
    17    18    20    1
    18    18    21    1
    19     5     2    1
    20    24    22    1
    21    22    23    1
    22    22    25    1
    23     2     3    1
    24     2     4    1
