@<TRIPOS>MOLECULE
1
 52 54 0 0 0
SMALL
GASTEIGER

@<TRIPOS>ATOM
      1 P           2.6215   -0.8274    7.0961 P.3     1  UNL1       -0.0964
      2 C           2.5339   -2.5509    7.8244 C.3     1  UNL1       -0.0200
      3 C           3.5587   -3.5696    7.3283 C.3     1  UNL1       -0.0463
      4 C           3.1412   -4.9679    7.7844 C.3     1  UNL1       -0.0525
      5 C           3.0610   -5.0302    9.3062 C.3     1  UNL1       -0.0530
      6 C           2.0988   -3.9694    9.8314 C.3     1  UNL1       -0.0525
      7 C           2.5111   -2.5790    9.3534 C.3     1  UNL1       -0.0463
      8 H           3.4924   -2.3332    9.7601 H       1  UNL1        0.0271
      9 H           1.7956   -1.8464    9.7258 H       1  UNL1        0.0271
     10 C           4.3994   -0.2236    7.1798 C.3     1  UNL1       -0.0200
     11 C           5.4698   -0.9277    6.3442 C.3     1  UNL1       -0.0463
     12 C           6.7631   -0.1123    6.3965 C.3     1  UNL1       -0.0525
     13 C           7.2536    0.0355    7.8329 C.3     1  UNL1       -0.0530
     14 C           6.1753    0.6821    8.6972 C.3     1  UNL1       -0.0525
     15 H           6.5168    0.7440    9.7323 H       1  UNL1        0.0265
     16 H           5.9851    1.6973    8.3448 H       1  UNL1        0.0265
     17 C           4.8834   -0.1274    8.6254 C.3     1  UNL1       -0.0463
     18 C           2.4508   -1.1973    5.2679 C.3     1  UNL1       -0.0200
     19 C           1.0843   -1.8044    4.9517 C.3     1  UNL1       -0.0463
     20 C           0.9258   -2.0600    3.4556 C.3     1  UNL1       -0.0525
     21 C           1.1218   -0.7718    2.6649 C.3     1  UNL1       -0.0530
     22 C           2.5034   -0.1966    2.9534 C.3     1  UNL1       -0.0525
     23 C           2.6668    0.0744    4.4470 C.3     1  UNL1       -0.0463
     24 H           1.5374   -2.8798    7.5018 H       1  UNL1        0.0349
     25 H           4.5378   -3.3474    7.7553 H       1  UNL1        0.0271
     26 H           3.6447   -3.5577    6.2411 H       1  UNL1        0.0271
     27 H           3.8600   -5.7050    7.4175 H       1  UNL1        0.0265
     28 H           2.1650   -5.2119    7.3596 H       1  UNL1        0.0265
     29 H           4.0550   -4.8588    9.7274 H       1  UNL1        0.0265
     30 H           2.7329   -6.0230    9.6212 H       1  UNL1        0.0265
     31 H           2.0810   -3.9919   10.9229 H       1  UNL1        0.0265
     32 H           1.0885   -4.1819    9.4765 H       1  UNL1        0.0265
     33 H           4.3066    0.8042    6.8048 H       1  UNL1        0.0349
     34 H           5.6707   -1.9231    6.7375 H       1  UNL1        0.0271
     35 H           5.1638   -1.0323    5.3037 H       1  UNL1        0.0271
     36 H           7.5292   -0.6017    5.7907 H       1  UNL1        0.0265
     37 H           6.5841    0.8786    5.9721 H       1  UNL1        0.0265
     38 H           7.4973   -0.9511    8.2341 H       1  UNL1        0.0265
     39 H           8.1642    0.6377    7.8549 H       1  UNL1        0.0265
     40 H           5.0766   -1.1279    9.0146 H       1  UNL1        0.0271
     41 H           4.1119    0.3424    9.2382 H       1  UNL1        0.0271
     42 H           3.2245   -1.9258    4.9987 H       1  UNL1        0.0349
     43 H           0.9542   -2.7450    5.4887 H       1  UNL1        0.0271
     44 H           0.3020   -1.1234    5.2860 H       1  UNL1        0.0271
     45 H           1.6646   -2.7976    3.1304 H       1  UNL1        0.0265
     46 H          -0.0659   -2.4727    3.2599 H       1  UNL1        0.0265
     47 H           1.0113   -0.9659    1.5957 H       1  UNL1        0.0265
     48 H           0.3582   -0.0458    2.9558 H       1  UNL1        0.0265
     49 H           3.2664   -0.9072    2.6242 H       1  UNL1        0.0265
     50 H           2.6487    0.7314    2.3959 H       1  UNL1        0.0265
     51 H           3.6595    0.4875    4.6321 H       1  UNL1        0.0271
     52 H           1.9392    0.8253    4.7514 H       1  UNL1        0.0271
@<TRIPOS>BOND
     1    47    21    1
     2    50    22    1
     3    49    22    1
     4    21    22    1
     5    21    48    1
     6    21    20    1
     7    22    23    1
     8    45    20    1
     9    46    20    1
    10    20    19    1
    11    23    51    1
    12    23    52    1
    13    23    18    1
    14    19    18    1
    15    19    44    1
    16    19    43    1
    17    42    18    1
    18    18     1    1
    19    35    11    1
    20    36    12    1
    21    37    12    1
    22    26     3    1
    23    11    12    1
    24    11    34    1
    25    11    10    1
    26    12    13    1
    27    33    10    1
    28     1    10    1
    29     1     2    1
    30    10    17    1
    31     3    25    1
    32     3     4    1
    33     3     2    1
    34    28     4    1
    35    27     4    1
    36    24     2    1
    37     4     5    1
    38     2     7    1
    39    13    39    1
    40    13    38    1
    41    13    14    1
    42    16    14    1
    43    17    14    1
    44    17    40    1
    45    17    41    1
    46    14    15    1
    47     5    30    1
    48     5    29    1
    49     5     6    1
    50     7     9    1
    51     7     8    1
    52     7     6    1
    53    32     6    1
    54     6    31    1
