@<TRIPOS>MOLECULE
1
 13 12 0 0 0
SMALL
GASTEIGER

@<TRIPOS>ATOM
      1 P           6.7477    4.1192    8.3691 P.3     1  UNL1       -0.1154
      2 C           7.7224    2.8880    9.3311 C.3     1  UNL1       -0.0447
      3 H           8.7558    2.8788    8.9897 H       1  UNL1        0.0277
      4 H           7.2938    1.9056    9.1580 H       1  UNL1        0.0277
      5 H           7.6975    3.1196   10.3959 H       1  UNL1        0.0277
      6 C           5.1640    3.9861    9.2903 C.3     1  UNL1       -0.0447
      7 H           4.7048    3.0365    9.0229 H       1  UNL1        0.0277
      8 H           4.4935    4.7851    8.9822 H       1  UNL1        0.0277
      9 H           5.3269    4.0383   10.3669 H       1  UNL1        0.0277
     10 C           7.4012    5.6429    9.1985 C.3     1  UNL1       -0.0447
     11 H           7.3418    5.5318   10.2812 H       1  UNL1        0.0277
     12 H           6.8121    6.5084    8.9024 H       1  UNL1        0.0277
     13 H           8.4383    5.8117    8.9175 H       1  UNL1        0.0277
@<TRIPOS>BOND
     1     1    10    1
     2     1     6    1
     3     1     2    1
     4    12    10    1
     5    13    10    1
     6     8     6    1
     7     3     2    1
     8     7     6    1
     9     4     2    1
    10    10    11    1
    11     6     9    1
    12     2     5    1
