@<TRIPOS>MOLECULE
1
 13 12 0 0 0
SMALL
GASTEIGER

@<TRIPOS>ATOM
      1 P           6.2263    6.2588    5.6610 P.3     1  UNL1       -0.1154
      2 C           4.7693    6.8820    6.6002 C.3     1  UNL1       -0.0447
      3 H           4.9262    6.7550    7.6686 H       1  UNL1        0.0277
      4 H           3.9059    6.2866    6.3099 H       1  UNL1        0.0277
      5 H           4.5818    7.9340    6.3842 H       1  UNL1        0.0277
      6 C           7.3993    7.6491    6.0333 C.3     1  UNL1       -0.0447
      7 H           6.9144    8.6098    5.8627 H       1  UNL1        0.0277
      8 H           8.2757    7.5789    5.3913 H       1  UNL1        0.0277
      9 H           7.7271    7.5981    7.0691 H       1  UNL1        0.0277
     10 C           5.6809    6.8375    3.9994 C.3     1  UNL1       -0.0447
     11 H           4.8572    6.2067    3.6723 H       1  UNL1        0.0277
     12 H           6.4913    6.7531    3.2779 H       1  UNL1        0.0277
     13 H           5.3524    7.8757    4.0477 H       1  UNL1        0.0277
@<TRIPOS>BOND
     1    12    10    1
     2    11    10    1
     3    10    13    1
     4    10     1    1
     5     8     6    1
     6     1     6    1
     7     1     2    1
     8     7     6    1
     9     6     9    1
    10     4     2    1
    11     5     2    1
    12     2     3    1
