@<TRIPOS>MOLECULE
1
 13 12 0 0 0
SMALL
GASTEIGER

@<TRIPOS>ATOM
      1 P           8.8189    3.9584    5.4907 P.3     1  UNL1       -0.1154
      2 C           9.9557    4.8511    6.6392 C.3     1  UNL1       -0.0447
      3 H           9.9751    4.3378    7.5991 H       1  UNL1        0.0277
      4 H           9.5962    5.8666    6.7930 H       1  UNL1        0.0277
      5 H          10.9680    4.8875    6.2362 H       1  UNL1        0.0277
      6 C           9.2206    4.8885    3.9511 C.3     1  UNL1       -0.0447
      7 H          10.2943    5.0614    3.8724 H       1  UNL1        0.0277
      8 H           8.6996    5.8435    3.9443 H       1  UNL1        0.0277
      9 H           8.8854    4.3074    3.0949 H       1  UNL1        0.0277
     10 C           9.8872    2.5004    5.1556 C.3     1  UNL1       -0.0447
     11 H          10.8636    2.8131    4.7845 H       1  UNL1        0.0277
     12 H           9.3982    1.8743    4.4127 H       1  UNL1        0.0277
     13 H          10.0127    1.9203    6.0659 H       1  UNL1        0.0277
@<TRIPOS>BOND
     1     9     6    1
     2     7     6    1
     3     8     6    1
     4     6     1    1
     5    12    10    1
     6    11    10    1
     7    10     1    1
     8    10    13    1
     9     1     2    1
    10     5     2    1
    11     2     4    1
    12     2     3    1
