@<TRIPOS>MOLECULE
1
 34 36 0 0 0
SMALL
GASTEIGER

@<TRIPOS>ATOM
      1 P           6.9779   10.2284    9.6704 P.3     1  UNL1       -0.0131
      2 C           5.7543   10.9197   10.8500 C.ar    1  UNL1       -0.0147
      3 C           4.6063   11.5990   10.4603 C.ar    1  UNL1       -0.0535
      4 H           4.3960   11.7565    9.4129 H       1  UNL1        0.0624
      5 C           3.7267   12.0882   11.4114 C.ar    1  UNL1       -0.0611
      6 H           2.8416   12.6212   11.0950 H       1  UNL1        0.0618
      7 C           3.9730   11.8956   12.7594 C.ar    1  UNL1       -0.0617
      8 H           3.2806   12.2728   13.4976 H       1  UNL1        0.0618
      9 C           5.1173   11.2235   13.1574 C.ar    1  UNL1       -0.0611
     10 H           5.3195   11.0733   14.2085 H       1  UNL1        0.0618
     11 C           6.0057   10.7520   12.2097 C.ar    1  UNL1       -0.0535
     12 H           6.9165   10.2593   12.5220 H       1  UNL1        0.0624
     13 C           6.4951    8.4567    9.7329 C.ar    1  UNL1       -0.0147
     14 C           6.8440    7.6772    8.6310 C.ar    1  UNL1       -0.0535
     15 H           7.2734    8.1594    7.7635 H       1  UNL1        0.0624
     16 C           6.6300    6.3137    8.6333 C.ar    1  UNL1       -0.0611
     17 H           6.9078    5.7259    7.7704 H       1  UNL1        0.0618
     18 C           6.0610    5.7051    9.7409 C.ar    1  UNL1       -0.0617
     19 H           5.8977    4.6374    9.7495 H       1  UNL1        0.0618
     20 C           5.6976    6.4726   10.8337 C.ar    1  UNL1       -0.0611
     21 H           5.2432    6.0048   11.6956 H       1  UNL1        0.0618
     22 C           5.9134    7.8407   10.8350 C.ar    1  UNL1       -0.0535
     23 H           5.6233    8.4245   11.6966 H       1  UNL1        0.0624
     24 C           6.1566   10.6801    8.0906 C.ar    1  UNL1       -0.0147
     25 C           6.6002   11.8015    7.4006 C.ar    1  UNL1       -0.0535
     26 H           7.4319   12.3637    7.8014 H       1  UNL1        0.0624
     27 C           5.9965   12.1896    6.2181 C.ar    1  UNL1       -0.0611
     28 H           6.3552   13.0620    5.6904 H       1  UNL1        0.0618
     29 C           4.9348   11.4604    5.7108 C.ar    1  UNL1       -0.0617
     30 H           4.4661   11.7546    4.7830 H       1  UNL1        0.0618
     31 C           4.4691   10.3547    6.4038 C.ar    1  UNL1       -0.0611
     32 H           3.6307    9.7905    6.0208 H       1  UNL1        0.0618
     33 C           5.0682    9.9690    7.5888 C.ar    1  UNL1       -0.0535
     34 H           4.6835    9.1138    8.1266 H       1  UNL1        0.0624
@<TRIPOS>BOND
     1    30    29    1
     2    28    27    1
     3    29    27   ar
     4    29    31   ar
     5    32    31    1
     6    27    25   ar
     7    31    33   ar
     8    25    26    1
     9    25    24   ar
    10    33    24   ar
    11    33    34    1
    12    15    14    1
    13    17    16    1
    14    24     1    1
    15    14    16   ar
    16    14    13   ar
    17    16    18   ar
    18     4     3    1
    19     1    13    1
    20     1     2    1
    21    13    22   ar
    22    18    19    1
    23    18    20   ar
    24     3     2   ar
    25     3     5   ar
    26    20    22   ar
    27    20    21    1
    28    22    23    1
    29     2    11   ar
    30     6     5    1
    31     5     7   ar
    32    11    12    1
    33    11     9   ar
    34     7     9   ar
    35     7     8    1
    36     9    10    1
