@<TRIPOS>MOLECULE
1
 34 36 0 0 0
SMALL
GASTEIGER

@<TRIPOS>ATOM
      1 P           6.9314   10.2218    9.6698 P.3     1  UNL1       -0.0131
      2 C           5.6867   10.9407   10.8122 C.ar    1  UNL1       -0.0147
      3 C           4.5380   11.5943   10.3826 C.ar    1  UNL1       -0.0535
      4 H           4.3402   11.7115    9.3274 H       1  UNL1        0.0624
      5 C           3.6405   12.1077   11.3035 C.ar    1  UNL1       -0.0611
      6 H           2.7547   12.6200   10.9561 H       1  UNL1        0.0618
      7 C           3.8694   11.9653   12.6607 C.ar    1  UNL1       -0.0617
      8 H           3.1627   12.3608   13.3754 H       1  UNL1        0.0618
      9 C           5.0148   11.3201   13.0982 C.ar    1  UNL1       -0.0611
     10 H           5.2034   11.2087   14.1565 H       1  UNL1        0.0618
     11 C           5.9215   10.8250   12.1804 C.ar    1  UNL1       -0.0535
     12 H           6.8334   10.3560   12.5231 H       1  UNL1        0.0624
     13 C           6.4657    8.4488    9.7836 C.ar    1  UNL1       -0.0147
     14 C           6.8096    7.6350    8.7051 C.ar    1  UNL1       -0.0535
     15 H           7.2219    8.0892    7.8149 H       1  UNL1        0.0624
     16 C           6.6114    6.2701    8.7574 C.ar    1  UNL1       -0.0611
     17 H           6.8843    5.6564    7.9110 H       1  UNL1        0.0618
     18 C           6.0656    5.6932    9.8931 C.ar    1  UNL1       -0.0617
     19 H           5.9148    4.6247    9.9403 H       1  UNL1        0.0618
     20 C           5.7107    6.4939   10.9647 C.ar    1  UNL1       -0.0611
     21 H           5.2756    6.0511   11.8495 H       1  UNL1        0.0618
     22 C           5.9107    7.8633   10.9160 C.ar    1  UNL1       -0.0535
     23 H           5.6274    8.4726   11.7619 H       1  UNL1        0.0624
     24 C           6.1331   10.6322    8.0665 C.ar    1  UNL1       -0.0147
     25 C           6.5565   11.7694    7.3886 C.ar    1  UNL1       -0.0535
     26 H           7.3522   12.3637    7.8147 H       1  UNL1        0.0624
     27 C           5.9780   12.1326    6.1861 C.ar    1  UNL1       -0.0611
     28 H           6.3211   13.0170    5.6682 H       1  UNL1        0.0618
     29 C           4.9617   11.3631    5.6463 C.ar    1  UNL1       -0.0617
     30 H           4.5133   11.6377    4.7025 H       1  UNL1        0.0618
     31 C           4.5141   10.2433    6.3278 C.ar    1  UNL1       -0.0611
     32 H           3.7089    9.6486    5.9205 H       1  UNL1        0.0618
     33 C           5.0877    9.8816    7.5330 C.ar    1  UNL1       -0.0535
     34 H           4.7143    9.0154    8.0609 H       1  UNL1        0.0624
@<TRIPOS>BOND
     1    30    29    1
     2    29    27   ar
     3    29    31   ar
     4    28    27    1
     5    32    31    1
     6    27    25   ar
     7    31    33   ar
     8    25    26    1
     9    25    24   ar
    10    33    34    1
    11    33    24   ar
    12    15    14    1
    13    17    16    1
    14    24     1    1
    15    14    16   ar
    16    14    13   ar
    17    16    18   ar
    18     4     3    1
    19     1    13    1
    20     1     2    1
    21    13    22   ar
    22    18    19    1
    23    18    20   ar
    24     3     2   ar
    25     3     5   ar
    26     2    11   ar
    27    22    20   ar
    28    22    23    1
    29     6     5    1
    30    20    21    1
    31     5     7   ar
    32    11    12    1
    33    11     9   ar
    34     7     9   ar
    35     7     8    1
    36     9    10    1
