@<TRIPOS>MOLECULE
1
 34 36 0 0 0
SMALL
GASTEIGER

@<TRIPOS>ATOM
      1 P           6.1700    2.3344   12.4219 P.3     1  UNL1       -0.0131
      2 C           7.8963    1.7320   12.4564 C.ar    1  UNL1       -0.0147
      3 C           8.2434    0.3864   12.5266 C.ar    1  UNL1       -0.0535
      4 H           7.4764   -0.3732   12.5910 H       1  UNL1        0.0624
      5 C           9.5753    0.0123   12.5045 C.ar    1  UNL1       -0.0611
      6 H           9.8363   -1.0350   12.5657 H       1  UNL1        0.0618
      7 C          10.5704    0.9693   12.3980 C.ar    1  UNL1       -0.0617
      8 H          11.6082    0.6701   12.3744 H       1  UNL1        0.0618
      9 C          10.2302    2.3089   12.3105 C.ar    1  UNL1       -0.0611
     10 H          11.0016    3.0589   12.2134 H       1  UNL1        0.0618
     11 C           8.9016    2.6892   12.3362 C.ar    1  UNL1       -0.0535
     12 H           8.6298    3.7301   12.2463 H       1  UNL1        0.0624
     13 C           5.2248    0.8161   12.8239 C.ar    1  UNL1       -0.0147
     14 C           5.4451    0.1284   14.0160 C.ar    1  UNL1       -0.0535
     15 H           6.1982    0.4803   14.7082 H       1  UNL1        0.0624
     16 C           4.6998   -0.9961   14.3129 C.ar    1  UNL1       -0.0611
     17 H           4.8758   -1.5274   15.2371 H       1  UNL1        0.0618
     18 C           3.7237   -1.4409   13.4332 C.ar    1  UNL1       -0.0617
     19 H           3.1410   -2.3180   13.6740 H       1  UNL1        0.0618
     20 C           3.4930   -0.7551   12.2538 C.ar    1  UNL1       -0.0611
     21 H           2.7262   -1.0858   11.5685 H       1  UNL1        0.0618
     22 C           4.2426    0.3684   11.9545 C.ar    1  UNL1       -0.0535
     23 H           4.0575    0.9188   11.0410 H       1  UNL1        0.0624
     24 C           6.0439    3.0711   14.1008 C.ar    1  UNL1       -0.0147
     25 C           4.7554    3.3123   14.5725 C.ar    1  UNL1       -0.0535
     26 H           3.9084    3.0694   13.9476 H       1  UNL1        0.0624
     27 C           4.5544    3.8502   15.8283 C.ar    1  UNL1       -0.0611
     28 H           3.5495    4.0278   16.1825 H       1  UNL1        0.0618
     29 C           5.6402    4.1627   16.6314 C.ar    1  UNL1       -0.0617
     30 H           5.4861    4.5864   17.6128 H       1  UNL1        0.0618
     31 C           6.9227    3.9240   16.1710 C.ar    1  UNL1       -0.0611
     32 H           7.7735    4.1582   16.7950 H       1  UNL1        0.0618
     33 C           7.1266    3.3776   14.9147 C.ar    1  UNL1       -0.0535
     34 H           8.1350    3.1820   14.5794 H       1  UNL1        0.0624
@<TRIPOS>BOND
     1    23    22    1
     2    21    20    1
     3    22    20   ar
     4    22    13   ar
     5    10     9    1
     6    12    11    1
     7    20    18   ar
     8     9    11   ar
     9     9     7   ar
    10    11     2   ar
    11     8     7    1
    12     7     5   ar
    13     1     2    1
    14     1    13    1
    15     1    24    1
    16     2     3   ar
    17     5     3   ar
    18     5     6    1
    19     3     4    1
    20    13    14   ar
    21    18    19    1
    22    18    16   ar
    23    26    25    1
    24    14    16   ar
    25    14    15    1
    26    24    25   ar
    27    24    33   ar
    28    16    17    1
    29    25    27   ar
    30    34    33    1
    31    33    31   ar
    32    27    28    1
    33    27    29   ar
    34    31    29   ar
    35    31    32    1
    36    29    30    1
