@<TRIPOS>MOLECULE
1
 34 36 0 0 0
SMALL
GASTEIGER

@<TRIPOS>ATOM
      1 P          10.1565    9.0045    8.9653 P.3     1  UNL1       -0.0131
      2 C           9.6093    8.5612    7.2618 C.ar    1  UNL1       -0.0147
      3 C           9.2356    9.6030    6.4162 C.ar    1  UNL1       -0.0535
      4 H           9.2912   10.6193    6.7794 H       1  UNL1        0.0624
      5 C           8.7768    9.3501    5.1371 C.ar    1  UNL1       -0.0611
      6 H           8.4820   10.1716    4.4999 H       1  UNL1        0.0618
      7 C           8.6860    8.0462    4.6799 C.ar    1  UNL1       -0.0617
      8 H           8.3214    7.8426    3.6837 H       1  UNL1        0.0618
      9 C           9.0589    7.0033    5.5109 C.ar    1  UNL1       -0.0611
     10 H           8.9881    5.9828    5.1615 H       1  UNL1        0.0618
     11 C           9.5151    7.2539    6.7933 C.ar    1  UNL1       -0.0535
     12 H           9.7771    6.4234    7.4317 H       1  UNL1        0.0624
     13 C          10.2521    7.3349    9.7265 C.ar    1  UNL1       -0.0147
     14 C           9.3361    6.9699   10.7027 C.ar    1  UNL1       -0.0535
     15 H           8.5843    7.6779   11.0182 H       1  UNL1        0.0624
     16 C           9.3766    5.7130   11.2796 C.ar    1  UNL1       -0.0611
     17 H           8.6542    5.4489   12.0380 H       1  UNL1        0.0618
     18 C          10.3415    4.8032   10.8867 C.ar    1  UNL1       -0.0617
     19 H          10.3792    3.8215   11.3359 H       1  UNL1        0.0618
     20 C          11.2662    5.1583    9.9167 C.ar    1  UNL1       -0.0611
     21 H          12.0248    4.4527    9.6086 H       1  UNL1        0.0618
     22 C          11.2245    6.4128    9.3391 C.ar    1  UNL1       -0.0535
     23 H          11.9533    6.6808    8.5861 H       1  UNL1        0.0624
     24 C          11.9494    9.2187    8.6557 C.ar    1  UNL1       -0.0147
     25 C          12.4814    9.5697    7.4229 C.ar    1  UNL1       -0.0535
     26 H          11.8300    9.7113    6.5723 H       1  UNL1        0.0624
     27 C          13.8496    9.7293    7.2777 C.ar    1  UNL1       -0.0611
     28 H          14.2580    9.9975    6.3139 H       1  UNL1        0.0618
     29 C          14.6942    9.5411    8.3576 C.ar    1  UNL1       -0.0617
     30 H          15.7614    9.6589    8.2384 H       1  UNL1        0.0618
     31 C          14.1662    9.2061    9.5962 C.ar    1  UNL1       -0.0611
     32 H          14.8223    9.0648   10.4431 H       1  UNL1        0.0618
     33 C          12.8028    9.0544    9.7452 C.ar    1  UNL1       -0.0535
     34 H          12.3811    8.7981   10.7086 H       1  UNL1        0.0624
@<TRIPOS>BOND
     1     8     7    1
     2     6     5    1
     3     7     5   ar
     4     7     9   ar
     5     5     3   ar
     6    10     9    1
     7     9    11   ar
     8    28    27    1
     9     3     4    1
    10     3     2   ar
    11    26    25    1
    12    11     2   ar
    13    11    12    1
    14     2     1    1
    15    27    25   ar
    16    27    29   ar
    17    25    24   ar
    18    30    29    1
    19    29    31   ar
    20    23    22    1
    21    24     1    1
    22    24    33   ar
    23     1    13    1
    24    22    13   ar
    25    22    20   ar
    26    31    33   ar
    27    31    32    1
    28    21    20    1
    29    13    14   ar
    30    33    34    1
    31    20    18   ar
    32    14    15    1
    33    14    16   ar
    34    18    16   ar
    35    18    19    1
    36    16    17    1
