@<TRIPOS>MOLECULE
1
 34 36 0 0 0
SMALL
GASTEIGER

@<TRIPOS>ATOM
      1 P          10.1999    9.0018    8.9759 P.3     1  UNL1       -0.0131
      2 C           9.6867    8.5524    7.2645 C.ar    1  UNL1       -0.0147
      3 C           9.3279    9.5934    6.4114 C.ar    1  UNL1       -0.0535
      4 H           9.3697   10.6092    6.7792 H       1  UNL1        0.0624
      5 C           8.9014    9.3399    5.1213 C.ar    1  UNL1       -0.0611
      6 H           8.6184   10.1603    4.4775 H       1  UNL1        0.0618
      7 C           8.8279    8.0357    4.6610 C.ar    1  UNL1       -0.0617
      8 H           8.4879    7.8315    3.6562 H       1  UNL1        0.0618
      9 C           9.1861    6.9937    5.4994 C.ar    1  UNL1       -0.0611
     10 H           9.1285    5.9734    5.1471 H       1  UNL1        0.0618
     11 C           9.6117    7.2453    6.7923 C.ar    1  UNL1       -0.0535
     12 H           9.8640    6.4158    7.4357 H       1  UNL1        0.0624
     13 C          10.2694    7.3368    9.7485 C.ar    1  UNL1       -0.0147
     14 C           9.3257    6.9845   10.7029 C.ar    1  UNL1       -0.0535
     15 H           8.5710    7.7013   10.9928 H       1  UNL1        0.0624
     16 C           9.3420    5.7314   11.2893 C.ar    1  UNL1       -0.0611
     17 H           8.5981    5.4774   12.0302 H       1  UNL1        0.0618
     18 C          10.3109    4.8125   10.9284 C.ar    1  UNL1       -0.0617
     19 H          10.3302    3.8340   11.3856 H       1  UNL1        0.0618
     20 C          11.2630    5.1545    9.9806 C.ar    1  UNL1       -0.0611
     21 H          12.0247    4.4417    9.6980 H       1  UNL1        0.0618
     22 C          11.2448    6.4051    9.3930 C.ar    1  UNL1       -0.0535
     23 H          11.9956    6.6632    8.6583 H       1  UNL1        0.0624
     24 C          11.9994    9.2027    8.7017 C.ar    1  UNL1       -0.0147
     25 C          12.5622    9.5297    7.4759 C.ar    1  UNL1       -0.0535
     26 H          11.9314    9.6609    6.6083 H       1  UNL1        0.0624
     27 C          13.9343    9.6806    7.3602 C.ar    1  UNL1       -0.0611
     28 H          14.3665    9.9320    6.4022 H       1  UNL1        0.0618
     29 C          14.7525    9.5058    8.4624 C.ar    1  UNL1       -0.0617
     30 H          15.8226    9.6176    8.3667 H       1  UNL1        0.0618
     31 C          14.1942    9.1910    9.6931 C.ar    1  UNL1       -0.0611
     32 H          14.8300    9.0584   10.5567 H       1  UNL1        0.0618
     33 C          12.8269    9.0483    9.8122 C.ar    1  UNL1       -0.0535
     34 H          12.3806    8.8071   10.7689 H       1  UNL1        0.0624
@<TRIPOS>BOND
     1     8     7    1
     2     6     5    1
     3     7     5   ar
     4     7     9   ar
     5     5     3   ar
     6    10     9    1
     7     9    11   ar
     8    28    27    1
     9     3     4    1
    10     3     2   ar
    11    26    25    1
    12    11     2   ar
    13    11    12    1
    14     2     1    1
    15    27    25   ar
    16    27    29   ar
    17    25    24   ar
    18    30    29    1
    19    29    31   ar
    20    23    22    1
    21    24     1    1
    22    24    33   ar
    23     1    13    1
    24    22    13   ar
    25    22    20   ar
    26    31    33   ar
    27    31    32    1
    28    21    20    1
    29    13    14   ar
    30    33    34    1
    31    20    18   ar
    32    14    15    1
    33    14    16   ar
    34    18    16   ar
    35    18    19    1
    36    16    17    1
