@<TRIPOS>MOLECULE
1
 34 36 0 0 0
SMALL
GASTEIGER

@<TRIPOS>ATOM
      1 P           4.8537    2.2865    8.8962 P.3     1  UNL1       -0.0131
      2 C           3.1136    1.7137    8.8718 C.ar    1  UNL1       -0.0147
      3 C           2.7321    0.3779    8.8247 C.ar    1  UNL1       -0.0535
      4 H           3.4794   -0.4015    8.7732 H       1  UNL1        0.0624
      5 C           1.3911    0.0355    8.8570 C.ar    1  UNL1       -0.0611
      6 H           1.1057   -1.0064    8.8190 H       1  UNL1        0.0618
      7 C           0.4191    1.0170    8.9410 C.ar    1  UNL1       -0.0617
      8 H          -0.6255    0.7442    8.9679 H       1  UNL1        0.0618
      9 C           0.7923    2.3501    9.0030 C.ar    1  UNL1       -0.0611
     10 H           0.0398    3.1208    9.0823 H       1  UNL1        0.0618
     11 C           2.1298    2.6953    8.9760 C.ar    1  UNL1       -0.0535
     12 H           2.4303    3.7327    9.0498 H       1  UNL1        0.0624
     13 C           5.7696    0.7306    8.5886 C.ar    1  UNL1       -0.0147
     14 C           6.7172    0.2965    9.5002 C.ar    1  UNL1       -0.0535
     15 H           6.9012    0.8853   10.3882 H       1  UNL1        0.0624
     16 C           7.4452   -0.8569    9.2684 C.ar    1  UNL1       -0.0611
     17 H           8.1907   -1.1735    9.9831 H       1  UNL1        0.0618
     18 C           7.2218   -1.5896    8.1166 C.ar    1  UNL1       -0.0617
     19 H           7.7874   -2.4905    7.9280 H       1  UNL1        0.0618
     20 C           6.2767   -1.1609    7.1956 C.ar    1  UNL1       -0.0611
     21 H           6.1067   -1.7296    6.2925 H       1  UNL1        0.0618
     22 C           5.5571   -0.0043    7.4223 C.ar    1  UNL1       -0.0535
     23 H           4.8309    0.3358    6.6959 H       1  UNL1        0.0624
     24 C           5.0144    2.9281    7.1849 C.ar    1  UNL1       -0.0147
     25 C           3.9358    3.2882    6.3861 C.ar    1  UNL1       -0.0535
     26 H           2.9263    3.2122    6.7624 H       1  UNL1        0.0624
     27 C           4.1462    3.7346    5.0925 C.ar    1  UNL1       -0.0611
     28 H           3.2993    4.0045    4.4775 H       1  UNL1        0.0618
     29 C           5.4306    3.8319    4.5853 C.ar    1  UNL1       -0.0617
     30 H           5.5888    4.1787    3.5745 H       1  UNL1        0.0618
     31 C           6.5101    3.4818    5.3798 C.ar    1  UNL1       -0.0611
     32 H           7.5153    3.5575    4.9915 H       1  UNL1        0.0618
     33 C           6.3049    3.0311    6.6694 C.ar    1  UNL1       -0.0535
     34 H           7.1490    2.7641    7.2888 H       1  UNL1        0.0624
@<TRIPOS>BOND
     1    30    29    1
     2    28    27    1
     3    29    27   ar
     4    29    31   ar
     5    32    31    1
     6    27    25   ar
     7    31    33   ar
     8    21    20    1
     9    25    26    1
    10    25    24   ar
    11    33    24   ar
    12    33    34    1
    13    23    22    1
    14    24     1    1
    15    20    22   ar
    16    20    18   ar
    17    22    13   ar
    18    19    18    1
    19    18    16   ar
    20    13     1    1
    21    13    14   ar
    22     4     3    1
    23     6     5    1
    24     3     5   ar
    25     3     2   ar
    26     5     7   ar
    27     2     1    1
    28     2    11   ar
    29     7     8    1
    30     7     9   ar
    31    11     9   ar
    32    11    12    1
    33     9    10    1
    34    16    14   ar
    35    16    17    1
    36    14    15    1
