@<TRIPOS>MOLECULE
1
 13 12 0 0 0
SMALL
GASTEIGER

@<TRIPOS>ATOM
      1 P          10.8323    4.3166    5.1516 P.3     1  UNL1       -0.1154
      2 C          10.3533    3.3619    6.6458 C.3     1  UNL1       -0.0447
      3 C          12.2862    3.2890    4.6702 C.3     1  UNL1       -0.0447
      4 C           9.6296    3.6027    3.9546 C.3     1  UNL1       -0.0447
      5 H          10.1473    2.3206    6.3943 H       1  UNL1        0.0277
      6 H           9.4756    3.8149    7.0999 H       1  UNL1        0.0277
      7 H          11.1744    3.4112    7.3616 H       1  UNL1        0.0277
      8 H          12.0398    2.2283    4.7352 H       1  UNL1        0.0277
      9 H          13.1123    3.5127    5.3454 H       1  UNL1        0.0277
     10 H          12.5830    3.5269    3.6496 H       1  UNL1        0.0277
     11 H           9.6500    2.5138    4.0124 H       1  UNL1        0.0277
     12 H           9.8896    3.9106    2.9423 H       1  UNL1        0.0277
     13 H           8.6323    3.9607    4.1985 H       1  UNL1        0.0277
@<TRIPOS>BOND
     1    12     4    1
     2    10     3    1
     3     4    11    1
     4     4    13    1
     5     4     1    1
     6     3     8    1
     7     3     1    1
     8     3     9    1
     9     1     2    1
    10     5     2    1
    11     2     6    1
    12     2     7    1
