@<TRIPOS>MOLECULE
1
 13 12 0 0 0
SMALL
GASTEIGER

@<TRIPOS>ATOM
      1 P           7.8311   12.2456    2.3193 P.3     1  UNL1       -0.1154
      2 C           8.0634   12.1088    0.4908 C.3     1  UNL1       -0.0447
      3 C           6.1646   13.0266    2.3259 C.3     1  UNL1       -0.0447
      4 C           7.3074   10.5185    2.6582 C.3     1  UNL1       -0.0447
      5 H           7.1864   11.6530    0.0307 H       1  UNL1        0.0277
      6 H           8.9381   11.4933    0.2827 H       1  UNL1        0.0277
      7 H           8.2220   13.0983    0.0643 H       1  UNL1        0.0277
      8 H           5.7630   12.9479    3.3359 H       1  UNL1        0.0277
      9 H           5.4957   12.5299    1.6221 H       1  UNL1        0.0277
     10 H           6.2464   14.0822    2.0699 H       1  UNL1        0.0277
     11 H           6.9997   10.4648    3.7021 H       1  UNL1        0.0277
     12 H           8.1529    9.8467    2.5135 H       1  UNL1        0.0277
     13 H           6.4841   10.2198    2.0079 H       1  UNL1        0.0277
@<TRIPOS>BOND
     1     5     2    1
     2     7     2    1
     3     6     2    1
     4     2     1    1
     5     9     3    1
     6    13     4    1
     7    10     3    1
     8     1     3    1
     9     1     4    1
    10     3     8    1
    11    12     4    1
    12     4    11    1
