@<TRIPOS>MOLECULE
1
 13 12 0 0 0
SMALL
GASTEIGER

@<TRIPOS>ATOM
      1 P          10.3597    7.2233    3.4326 P.3     1  UNL1       -0.1154
      2 C          11.2833    6.7229    1.9119 C.3     1  UNL1       -0.0447
      3 C          10.2987    9.0332    3.1385 C.3     1  UNL1       -0.0447
      4 C           8.6692    6.8282    2.8187 C.3     1  UNL1       -0.0447
      5 H          10.7569    7.0624    1.0195 H       1  UNL1        0.0277
      6 H          11.3795    5.6375    1.8816 H       1  UNL1        0.0277
      7 H          12.2776    7.1667    1.9315 H       1  UNL1        0.0277
      8 H          11.2761    9.4723    3.3309 H       1  UNL1        0.0277
      9 H           9.5851    9.4608    3.8407 H       1  UNL1        0.0277
     10 H           9.9881    9.2496    2.1153 H       1  UNL1        0.0277
     11 H           8.5091    7.3190    1.8579 H       1  UNL1        0.0277
     12 H           7.9384    7.1885    3.5366 H       1  UNL1        0.0277
     13 H           8.5430    5.7562    2.6986 H       1  UNL1        0.0277
@<TRIPOS>BOND
     1     5     2    1
     2    11     4    1
     3     6     2    1
     4     2     7    1
     5     2     1    1
     6    10     3    1
     7    13     4    1
     8     4     1    1
     9     4    12    1
    10     3     8    1
    11     3     1    1
    12     3     9    1
