@<TRIPOS>MOLECULE
1
 13 12 0 0 0
SMALL
GASTEIGER

@<TRIPOS>ATOM
      1 P          11.2579   12.5334    2.5395 P.3     1  UNL1       -0.1154
      2 C          11.4683   10.7535    2.1227 C.3     1  UNL1       -0.0447
      3 C          12.8763   12.7898    3.3695 C.3     1  UNL1       -0.0447
      4 C          11.6747   13.2515    0.8877 C.3     1  UNL1       -0.0447
      5 H          12.3707   10.5960    1.5309 H       1  UNL1        0.0277
      6 H          10.6014   10.3950    1.5687 H       1  UNL1        0.0277
      7 H          11.5379   10.1953    3.0562 H       1  UNL1        0.0277
      8 H          12.8528   12.2478    4.3148 H       1  UNL1        0.0277
      9 H          13.0129   13.8490    3.5837 H       1  UNL1        0.0277
     10 H          13.6989   12.4264    2.7521 H       1  UNL1        0.0277
     11 H          12.6079   12.8272    0.5165 H       1  UNL1        0.0277
     12 H          11.7824   14.3318    0.9750 H       1  UNL1        0.0277
     13 H          10.8744   13.0364    0.1811 H       1  UNL1        0.0277
@<TRIPOS>BOND
     1    13     4    1
     2    11     4    1
     3     4    12    1
     4     4     1    1
     5     5     2    1
     6     6     2    1
     7     2     1    1
     8     2     7    1
     9     1     3    1
    10    10     3    1
    11     3     9    1
    12     3     8    1
