@<TRIPOS>MOLECULE
1
 13 12 0 0 0
SMALL
GASTEIGER

@<TRIPOS>ATOM
      1 P           9.2971   15.2886    3.0053 P.3     1  UNL1       -0.1154
      2 C          10.8114   16.3160    3.2006 C.3     1  UNL1       -0.0447
      3 C           8.8499   15.7785    1.2802 C.3     1  UNL1       -0.0447
      4 C           8.1316   16.3757    3.9151 C.3     1  UNL1       -0.0447
      5 H          10.6420   17.3319    2.8418 H       1  UNL1        0.0277
      6 H          11.6416   15.8698    2.6550 H       1  UNL1        0.0277
      7 H          11.0660   16.3355    4.2600 H       1  UNL1        0.0277
      8 H           8.8508   16.8644    1.1836 H       1  UNL1        0.0277
      9 H           7.8573   15.3982    1.0416 H       1  UNL1        0.0277
     10 H           9.5650   15.3527    0.5778 H       1  UNL1        0.0277
     11 H           8.3723   16.3003    4.9753 H       1  UNL1        0.0277
     12 H           7.1129   16.0181    3.7676 H       1  UNL1        0.0277
     13 H           8.2129   17.4116    3.5829 H       1  UNL1        0.0277
@<TRIPOS>BOND
     1    10     3    1
     2     9     3    1
     3     8     3    1
     4     3     1    1
     5     6     2    1
     6     5     2    1
     7     1     2    1
     8     1     4    1
     9     2     7    1
    10    13     4    1
    11    12     4    1
    12     4    11    1
