@<TRIPOS>MOLECULE
1
 13 12 0 0 0
SMALL
GASTEIGER

@<TRIPOS>ATOM
      1 P          13.4468    6.7401    4.8297 P.3     1  UNL1       -0.1154
      2 C          14.7138    6.4991    6.1416 C.3     1  UNL1       -0.0447
      3 C          14.3458    5.7699    3.5249 C.3     1  UNL1       -0.0447
      4 C          13.9519    8.4280    4.2931 C.3     1  UNL1       -0.0447
      5 H          14.5678    7.2439    6.9189 H       1  UNL1        0.0277
      6 H          15.7167    6.5924    5.7235 H       1  UNL1        0.0277
      7 H          14.5946    5.5095    6.5813 H       1  UNL1        0.0277
      8 H          13.7316    5.6051    2.6437 H       1  UNL1        0.0277
      9 H          14.6306    4.8036    3.9364 H       1  UNL1        0.0277
     10 H          15.2480    6.3087    3.2347 H       1  UNL1        0.0277
     11 H          15.0381    8.5033    4.2318 H       1  UNL1        0.0277
     12 H          13.5730    9.1450    5.0195 H       1  UNL1        0.0277
     13 H          13.5195    8.6547    3.3194 H       1  UNL1        0.0277
@<TRIPOS>BOND
     1     8     3    1
     2    10     3    1
     3    13     4    1
     4     3     9    1
     5     3     1    1
     6    11     4    1
     7     4     1    1
     8     4    12    1
     9     1     2    1
    10     6     2    1
    11     2     7    1
    12     2     5    1
