@<TRIPOS>MOLECULE
1
 34 36 0 0 0
SMALL
GASTEIGER

@<TRIPOS>ATOM
      1 P           3.8650   10.4322    3.1981 P.3     1  UNL1       -0.0131
      2 C           4.7736    8.8553    3.4003 C.ar    1  UNL1       -0.0147
      3 C           4.4995    7.7086    2.6678 C.ar    1  UNL1       -0.0535
      4 C           5.2576    6.5644    2.8491 C.ar    1  UNL1       -0.0611
      5 C           6.2911    6.5506    3.7679 C.ar    1  UNL1       -0.0617
      6 C           6.5605    7.6856    4.5157 C.ar    1  UNL1       -0.0611
      7 C           5.8107    8.8294    4.3305 C.ar    1  UNL1       -0.0535
      8 C           3.4724   10.7044    4.9755 C.ar    1  UNL1       -0.0147
      9 C           3.2746    9.6524    5.8680 C.ar    1  UNL1       -0.0535
     10 C           2.9097    9.9089    7.1770 C.ar    1  UNL1       -0.0611
     11 C           2.7244   11.2123    7.6106 C.ar    1  UNL1       -0.0617
     12 C           2.9063   12.2619    6.7266 C.ar    1  UNL1       -0.0611
     13 C           3.2781   12.0037    5.4192 C.ar    1  UNL1       -0.0535
     14 C           2.2119    9.7923    2.6938 C.ar    1  UNL1       -0.0147
     15 C           1.0987    9.7010    3.5213 C.ar    1  UNL1       -0.0535
     16 C          -0.1072    9.2346    3.0236 C.ar    1  UNL1       -0.0611
     17 C          -0.2203    8.8487    1.6996 C.ar    1  UNL1       -0.0617
     18 C           0.8790    8.9520    0.8624 C.ar    1  UNL1       -0.0611
     19 C           2.0768    9.4340    1.3553 C.ar    1  UNL1       -0.0535
     20 H           3.6789    7.6971    1.9665 H       1  UNL1        0.0624
     21 H           5.0351    5.6782    2.2720 H       1  UNL1        0.0618
     22 H           6.8817    5.6572    3.9067 H       1  UNL1        0.0618
     23 H           7.3593    7.6785    5.2420 H       1  UNL1        0.0618
     24 H           6.0190    9.7143    4.9128 H       1  UNL1        0.0624
     25 H           3.4027    8.6320    5.5358 H       1  UNL1        0.0624
     26 H           2.7633    9.0866    7.8626 H       1  UNL1        0.0618
     27 H           2.4383   11.4067    8.6338 H       1  UNL1        0.0618
     28 H           2.7622   13.2801    7.0586 H       1  UNL1        0.0618
     29 H           3.4479   12.8035    4.7194 H       1  UNL1        0.0624
     30 H           1.1591    9.9963    4.5579 H       1  UNL1        0.0624
     31 H          -0.9646    9.1725    3.6784 H       1  UNL1        0.0618
     32 H          -1.1614    8.4793    1.3195 H       1  UNL1        0.0618
     33 H           0.7981    8.6660   -0.1769 H       1  UNL1        0.0618
     34 H           2.9299    9.5620    0.7108 H       1  UNL1        0.0624
@<TRIPOS>BOND
     1    33    18    1
     2    34    19    1
     3    18    19   ar
     4    18    17   ar
     5    32    17    1
     6    19    14   ar
     7    17    16   ar
     8    20     3    1
     9    21     4    1
    10     3     4   ar
    11     3     2   ar
    12    14     1    1
    13    14    15   ar
    14     4     5   ar
    15    16    15   ar
    16    16    31    1
    17     1     2    1
    18     1     8    1
    19     2     7   ar
    20    15    30    1
    21     5    22    1
    22     5     6   ar
    23     7     6   ar
    24     7    24    1
    25     6    23    1
    26    29    13    1
    27     8    13   ar
    28     8     9   ar
    29    13    12   ar
    30    25     9    1
    31     9    10   ar
    32    12    28    1
    33    12    11   ar
    34    10    11   ar
    35    10    26    1
    36    11    27    1
