@<TRIPOS>MOLECULE
1
 34 36 0 0 0
SMALL
GASTEIGER

@<TRIPOS>ATOM
      1 P           3.9740    3.1110    3.3625 P.3     1  UNL1       -0.0131
      2 C           3.7365    3.3941    5.1669 C.ar    1  UNL1       -0.0147
      3 C           3.6910    4.6919    5.6541 C.ar    1  UNL1       -0.0535
      4 C           3.4491    4.9409    6.9939 C.ar    1  UNL1       -0.0611
      5 C           3.2488    3.8860    7.8672 C.ar    1  UNL1       -0.0617
      6 C           3.2880    2.5847    7.3917 C.ar    1  UNL1       -0.0611
      7 C           3.5252    2.3378    6.0521 C.ar    1  UNL1       -0.0535
      8 C           2.2661    2.5432    2.9745 C.ar    1  UNL1       -0.0147
      9 C           1.2125    2.4635    3.8762 C.ar    1  UNL1       -0.0535
     10 C          -0.0415    2.0540    3.4510 C.ar    1  UNL1       -0.0611
     11 C          -0.2599    1.7136    2.1280 C.ar    1  UNL1       -0.0617
     12 C           0.7811    1.8077    1.2173 C.ar    1  UNL1       -0.0611
     13 C           2.0259    2.2348    1.6377 C.ar    1  UNL1       -0.0535
     14 C           4.8207    1.4938    3.5028 C.ar    1  UNL1       -0.0147
     15 C           4.4241    0.3570    2.8119 C.ar    1  UNL1       -0.0535
     16 C           5.1362   -0.8234    2.9402 C.ar    1  UNL1       -0.0611
     17 C           6.2449   -0.8827    3.7646 C.ar    1  UNL1       -0.0617
     18 C           6.6361    0.2423    4.4727 C.ar    1  UNL1       -0.0611
     19 C           5.9313    1.4216    4.3408 C.ar    1  UNL1       -0.0535
     20 H           3.8712    5.5004    4.9678 H       1  UNL1        0.0624
     21 H           3.4214    5.9578    7.3584 H       1  UNL1        0.0618
     22 H           3.0633    4.0747    8.9144 H       1  UNL1        0.0618
     23 H           3.1287    1.7576    8.0685 H       1  UNL1        0.0618
     24 H           3.5437    1.3199    5.6887 H       1  UNL1        0.0624
     25 H           1.3562    2.7243    4.9139 H       1  UNL1        0.0624
     26 H          -0.8533    2.0008    4.1624 H       1  UNL1        0.0618
     27 H          -1.2378    1.3878    1.8051 H       1  UNL1        0.0618
     28 H           0.6161    1.5577    0.1786 H       1  UNL1        0.0618
     29 H           2.8363    2.3638    0.9398 H       1  UNL1        0.0624
     30 H           3.5449    0.3840    2.1855 H       1  UNL1        0.0624
     31 H           4.8189   -1.7016    2.3962 H       1  UNL1        0.0618
     32 H           6.7998   -1.8041    3.8616 H       1  UNL1        0.0618
     33 H           7.4943    0.1994    5.1264 H       1  UNL1        0.0618
     34 H           6.2334    2.2988    4.8929 H       1  UNL1        0.0624
@<TRIPOS>BOND
     1    28    12    1
     2    29    13    1
     3    12    13   ar
     4    12    11   ar
     5    13     8   ar
     6    27    11    1
     7    11    10   ar
     8    30    15    1
     9    31    16    1
    10    15    16   ar
    11    15    14   ar
    12    16    17   ar
    13     8     1    1
    14     8     9   ar
    15     1    14    1
    16     1     2    1
    17    10     9   ar
    18    10    26    1
    19    14    19   ar
    20    17    32    1
    21    17    18   ar
    22     9    25    1
    23    19    18   ar
    24    19    34    1
    25    18    33    1
    26    20     3    1
    27     2     3   ar
    28     2     7   ar
    29     3     4   ar
    30    24     7    1
    31     7     6   ar
    32     4    21    1
    33     4     5   ar
    34     6     5   ar
    35     6    23    1
    36     5    22    1
