@<TRIPOS>MOLECULE
1
 26 26 0 0 0
SMALL
GASTEIGER

@<TRIPOS>ATOM
      1 P           7.2497    7.1387   13.6270 P.3     1  UNL1       -0.0752
      2 C           7.7376    6.0736   15.0639 C.3     1  UNL1       -0.0312
      3 H           8.2828    5.2213   14.6512 H       1  UNL1        0.0313
      4 H           8.4580    6.6640   15.6364 H       1  UNL1        0.0313
      5 C           6.6108    5.5831   15.9633 C.3     1  UNL1       -0.0611
      6 H           6.1186    6.4088   16.4709 H       1  UNL1        0.0233
      7 H           7.0145    4.9158   16.7235 H       1  UNL1        0.0233
      8 H           5.8639    5.0339   15.3930 H       1  UNL1        0.0233
      9 C           6.2703    8.4596   14.4897 C.3     1  UNL1       -0.0312
     10 H           5.9393    9.1579   13.7159 H       1  UNL1        0.0313
     11 H           5.3875    8.0030   14.9475 H       1  UNL1        0.0313
     12 C           7.0746    9.2308   15.5268 C.3     1  UNL1       -0.0611
     13 H           7.3444    8.6009   16.3708 H       1  UNL1        0.0233
     14 H           6.4887   10.0681   15.9023 H       1  UNL1        0.0233
     15 H           7.9867    9.6196   15.0784 H       1  UNL1        0.0233
     16 C           5.8731    6.1312   12.9553 C.ar    1  UNL1       -0.0234
     17 C           4.6381    6.6707   12.6022 C.ar    1  UNL1       -0.0541
     18 H           4.4259    7.7156   12.7765 H       1  UNL1        0.0624
     19 C           3.6596    5.8751   12.0318 C.ar    1  UNL1       -0.0612
     20 H           2.7064    6.3096   11.7660 H       1  UNL1        0.0618
     21 C           3.8956    4.5302   11.8020 C.ar    1  UNL1       -0.0617
     22 H           3.1285    3.9133   11.3575 H       1  UNL1        0.0618
     23 C           5.1203    3.9836   12.1483 C.ar    1  UNL1       -0.0612
     24 H           5.3183    2.9354   11.9777 H       1  UNL1        0.0618
     25 C           6.0990    4.7787   12.7127 C.ar    1  UNL1       -0.0541
     26 H           7.0501    4.3430   12.9731 H       1  UNL1        0.0624
@<TRIPOS>BOND
     1    22    21    1
     2    20    19    1
     3    21    19   ar
     4    21    23   ar
     5    24    23    1
     6    19    17   ar
     7    23    25   ar
     8    17    18    1
     9    17    16   ar
    10    25    16   ar
    11    25    26    1
    12    16     1    1
    13     1     9    1
    14     1     2    1
    15    10     9    1
    16     9    11    1
    17     9    12    1
    18     3     2    1
    19     2     4    1
    20     2     5    1
    21    15    12    1
    22     8     5    1
    23    12    14    1
    24    12    13    1
    25     5     6    1
    26     5     7    1
