@<TRIPOS>MOLECULE
1
 26 26 0 0 0
SMALL
GASTEIGER

@<TRIPOS>ATOM
      1 P          10.4586    6.0629   12.2202 P.3     1  UNL1       -0.0752
      2 C          11.7789    5.9287   13.5052 C.3     1  UNL1       -0.0312
      3 H          12.2789    6.8993   13.5004 H       1  UNL1        0.0313
      4 H          11.2667    5.8532   14.4693 H       1  UNL1        0.0313
      5 C          12.8262    4.8329   13.3582 C.3     1  UNL1       -0.0611
      6 H          12.3803    3.8460   13.2454 H       1  UNL1        0.0233
      7 H          13.4542    4.8255   14.2464 H       1  UNL1        0.0233
      8 H          13.4663    5.0325   12.5035 H       1  UNL1        0.0233
      9 C          11.4405    5.9213   10.6475 C.3     1  UNL1       -0.0312
     10 H          10.8832    6.4648    9.8812 H       1  UNL1        0.0313
     11 H          12.3394    6.5087   10.8538 H       1  UNL1        0.0313
     12 C          11.8213    4.5433   10.1156 C.3     1  UNL1       -0.0611
     13 H          12.1989    3.8946   10.8998 H       1  UNL1        0.0233
     14 H          12.6017    4.6579    9.3644 H       1  UNL1        0.0233
     15 H          10.9769    4.0442    9.6462 H       1  UNL1        0.0233
     16 C           9.6886    4.4033   12.3019 C.ar    1  UNL1       -0.0234
     17 C           9.7370    3.5925   13.4333 C.ar    1  UNL1       -0.0541
     18 H          10.2598    3.9198   14.3199 H       1  UNL1        0.0624
     19 C           9.1195    2.3533   13.4367 C.ar    1  UNL1       -0.0612
     20 H           9.1698    1.7342   14.3213 H       1  UNL1        0.0618
     21 C           8.4439    1.9027   12.3148 C.ar    1  UNL1       -0.0617
     22 H           7.9736    0.9302   12.3199 H       1  UNL1        0.0618
     23 C           8.3692    2.7110   11.1927 C.ar    1  UNL1       -0.0612
     24 H           7.8334    2.3802   10.3147 H       1  UNL1        0.0618
     25 C           8.9759    3.9527   11.1943 C.ar    1  UNL1       -0.0541
     26 H           8.8916    4.5887   10.3283 H       1  UNL1        0.0624
@<TRIPOS>BOND
     1    14    12    1
     2    15    12    1
     3    10     9    1
     4    12     9    1
     5    12    13    1
     6    24    23    1
     7    26    25    1
     8     9    11    1
     9     9     1    1
    10    23    25   ar
    11    23    21   ar
    12    25    16   ar
    13     1    16    1
    14     1     2    1
    15    16    17   ar
    16    21    22    1
    17    21    19   ar
    18     8     5    1
    19     6     5    1
    20     5     2    1
    21     5     7    1
    22    17    19   ar
    23    17    18    1
    24    19    20    1
    25     3     2    1
    26     2     4    1
