@<TRIPOS>MOLECULE
1
 26 26 0 0 0
SMALL
GASTEIGER

@<TRIPOS>ATOM
      1 P           8.2030    8.1534   10.3285 P.3     1  UNL1       -0.0752
      2 C           6.4730    8.8319   10.3470 C.3     1  UNL1       -0.0312
      3 H           6.0059    8.6361    9.3767 H       1  UNL1        0.0313
      4 H           5.9296    8.2591   11.1028 H       1  UNL1        0.0313
      5 C           6.3924   10.3104   10.6965 C.3     1  UNL1       -0.0611
      6 H           6.9678   10.5249   11.5952 H       1  UNL1        0.0233
      7 H           5.3557   10.5963   10.8714 H       1  UNL1        0.0233
      8 H           6.7831   10.9333    9.8975 H       1  UNL1        0.0233
      9 C           8.9828    9.2650    9.0760 C.3     1  UNL1       -0.0312
     10 H           9.0596   10.2276    9.5864 H       1  UNL1        0.0313
     11 H          10.0055    8.9084    8.9203 H       1  UNL1        0.0313
     12 C           8.2646    9.4353    7.7418 C.3     1  UNL1       -0.0611
     13 H           8.0774    8.4795    7.2562 H       1  UNL1        0.0233
     14 H           8.8779   10.0393    7.0744 H       1  UNL1        0.0233
     15 H           7.3124    9.9434    7.8694 H       1  UNL1        0.0233
     16 C           7.8712    6.6696    9.3004 C.ar    1  UNL1       -0.0234
     17 C           8.7702    6.2508    8.3209 C.ar    1  UNL1       -0.0541
     18 H           9.6666    6.8209    8.1239 H       1  UNL1        0.0624
     19 C           8.5290    5.1079    7.5798 C.ar    1  UNL1       -0.0612
     20 H           9.2373    4.8021    6.8230 H       1  UNL1        0.0618
     21 C           7.3859    4.3588    7.8043 C.ar    1  UNL1       -0.0617
     22 H           7.1986    3.4674    7.2237 H       1  UNL1        0.0618
     23 C           6.4873    4.7620    8.7774 C.ar    1  UNL1       -0.0612
     24 H           5.5924    4.1866    8.9659 H       1  UNL1        0.0618
     25 C           6.7295    5.9034    9.5197 C.ar    1  UNL1       -0.0541
     26 H           6.0216    6.1923   10.2798 H       1  UNL1        0.0624
@<TRIPOS>BOND
     1    20    19    1
     2    14    12    1
     3    22    21    1
     4    13    12    1
     5    19    21   ar
     6    19    17   ar
     7    12    15    1
     8    12     9    1
     9    21    23   ar
    10    18    17    1
    11    17    16   ar
    12    23    24    1
    13    23    25   ar
    14    11     9    1
    15     9    10    1
    16     9     1    1
    17    16    25   ar
    18    16     1    1
    19     3     2    1
    20    25    26    1
    21     8     5    1
    22     1     2    1
    23     2     5    1
    24     2     4    1
    25     5     7    1
    26     5     6    1
