@<TRIPOS>MOLECULE
1
 34 36 0 0 0
SMALL
GASTEIGER

@<TRIPOS>ATOM
      1 P          -2.7973    1.6953    3.7497 P.3     1  UNL1       -0.0131
      2 C          -3.7999    1.5419    5.2832 C.ar    1  UNL1       -0.0147
      3 C          -3.1515    1.0276    6.4059 C.ar    1  UNL1       -0.0535
      4 H          -2.1204    0.7133    6.3107 H       1  UNL1        0.0624
      5 C          -3.8152    0.9159    7.6128 C.ar    1  UNL1       -0.0611
      6 H          -3.3055    0.5083    8.4744 H       1  UNL1        0.0618
      7 C          -5.1342    1.3308    7.7182 C.ar    1  UNL1       -0.0617
      8 H          -5.6539    1.2499    8.6617 H       1  UNL1        0.0618
      9 C          -5.7826    1.8482    6.6102 C.ar    1  UNL1       -0.0611
     10 H          -6.8107    2.1721    6.6886 H       1  UNL1        0.0618
     11 C          -5.1226    1.9529    5.3965 C.ar    1  UNL1       -0.0535
     12 H          -5.6415    2.3538    4.5371 H       1  UNL1        0.0624
     13 C          -2.5145   -0.0803    3.3918 C.ar    1  UNL1       -0.0147
     14 C          -3.0601   -1.1403    4.1078 C.ar    1  UNL1       -0.0535
     15 H          -3.6738   -0.9610    4.9783 H       1  UNL1        0.0624
     16 C          -2.8231   -2.4433    3.7023 C.ar    1  UNL1       -0.0611
     17 H          -3.2439   -3.2621    4.2684 H       1  UNL1        0.0618
     18 C          -2.0611   -2.7002    2.5755 C.ar    1  UNL1       -0.0617
     19 H          -1.8850   -3.7191    2.2634 H       1  UNL1        0.0618
     20 C          -1.5297   -1.6458    1.8495 C.ar    1  UNL1       -0.0611
     21 H          -0.9399   -1.8400    0.9657 H       1  UNL1        0.0618
     22 C          -1.7502   -0.3448    2.2599 C.ar    1  UNL1       -0.0535
     23 H          -1.3374    0.4950    1.7249 H       1  UNL1        0.0624
     24 C          -4.1474    2.0093    2.5421 C.ar    1  UNL1       -0.0147
     25 C          -4.8079    1.0089    1.8379 C.ar    1  UNL1       -0.0535
     26 H          -4.5185   -0.0240    1.9608 H       1  UNL1        0.0624
     27 C          -5.8372    1.3342    0.9709 C.ar    1  UNL1       -0.0611
     28 H          -6.3396    0.5510    0.4219 H       1  UNL1        0.0618
     29 C          -6.2268    2.6524    0.8058 C.ar    1  UNL1       -0.0617
     30 H          -7.0308    2.8996    0.1284 H       1  UNL1        0.0618
     31 C          -5.5802    3.6538    1.5120 C.ar    1  UNL1       -0.0611
     32 H          -5.8822    4.6843    1.3890 H       1  UNL1        0.0618
     33 C          -4.5455    3.3309    2.3688 C.ar    1  UNL1       -0.0535
     34 H          -4.0243    4.1043    2.9152 H       1  UNL1        0.0624
@<TRIPOS>BOND
     1    30    29    1
     2    28    27    1
     3    29    27   ar
     4    29    31   ar
     5    21    20    1
     6    27    25   ar
     7    32    31    1
     8    31    33   ar
     9    23    22    1
    10    25    26    1
    11    25    24   ar
    12    20    22   ar
    13    20    18   ar
    14    22    13   ar
    15    19    18    1
    16    33    24   ar
    17    33    34    1
    18    24     1    1
    19    18    16   ar
    20    13     1    1
    21    13    14   ar
    22    16    14   ar
    23    16    17    1
    24     1     2    1
    25    14    15    1
    26    12    11    1
    27     2    11   ar
    28     2     3   ar
    29    11     9   ar
    30     4     3    1
    31     3     5   ar
    32     9    10    1
    33     9     7   ar
    34     5     7   ar
    35     5     6    1
    36     7     8    1
