@<TRIPOS>MOLECULE
1
 34 36 0 0 0
SMALL
GASTEIGER

@<TRIPOS>ATOM
      1 P           3.7247   11.5747    8.4706 P.3     1  UNL1       -0.0131
      2 C           5.4791   12.0845    8.4937 C.ar    1  UNL1       -0.0147
      3 C           6.4118   11.1814    9.0055 C.ar    1  UNL1       -0.0535
      4 H           6.0707   10.2276    9.3886 H       1  UNL1        0.0624
      5 C           7.7549   11.5101    9.0299 C.ar    1  UNL1       -0.0611
      6 H           8.4712   10.8111    9.4362 H       1  UNL1        0.0618
      7 C           8.1807   12.7328    8.5333 C.ar    1  UNL1       -0.0617
      8 H           9.2301   12.9869    8.5495 H       1  UNL1        0.0618
      9 C           7.2587   13.6278    8.0175 C.ar    1  UNL1       -0.0611
     10 H           7.5881   14.5807    7.6303 H       1  UNL1        0.0618
     11 C           5.9109   13.3093    7.9972 C.ar    1  UNL1       -0.0535
     12 H           5.1949   14.0137    7.5981 H       1  UNL1        0.0624
     13 C           2.8795   13.1304    8.0237 C.ar    1  UNL1       -0.0147
     14 C           2.6977   13.4138    6.6736 C.ar    1  UNL1       -0.0535
     15 H           3.0440   12.7066    5.9328 H       1  UNL1        0.0624
     16 C           2.0673   14.5781    6.2793 C.ar    1  UNL1       -0.0611
     17 H           1.9189   14.7804    5.2293 H       1  UNL1        0.0618
     18 C           1.6150   15.4739    7.2345 C.ar    1  UNL1       -0.0617
     19 H           1.1104   16.3787    6.9306 H       1  UNL1        0.0618
     20 C           1.8084   15.2061    8.5794 C.ar    1  UNL1       -0.0611
     21 H           1.4602   15.9055    9.3248 H       1  UNL1        0.0618
     22 C           2.4407   14.0417    8.9782 C.ar    1  UNL1       -0.0535
     23 H           2.5856   13.8379   10.0286 H       1  UNL1        0.0624
     24 C           3.3268   11.4533   10.2478 C.ar    1  UNL1       -0.0147
     25 C           1.9889   11.2141   10.5572 C.ar    1  UNL1       -0.0535
     26 H           1.2732   11.1202    9.7543 H       1  UNL1        0.0624
     27 C           1.5854   11.1066   11.8738 C.ar    1  UNL1       -0.0611
     28 H           0.5478   10.9153   12.1002 H       1  UNL1        0.0618
     29 C           2.5136   11.2310   12.8952 C.ar    1  UNL1       -0.0617
     30 H           2.2030   11.1335   13.9246 H       1  UNL1        0.0618
     31 C           3.8403   11.4846   12.5930 C.ar    1  UNL1       -0.0611
     32 H           4.5654   11.5912   13.3862 H       1  UNL1        0.0618
     33 C           4.2505   11.6014   11.2759 C.ar    1  UNL1       -0.0535
     34 H           5.2876   11.8085   11.0606 H       1  UNL1        0.0624
@<TRIPOS>BOND
     1    17    16    1
     2    15    14    1
     3    16    14   ar
     4    16    18   ar
     5    14    13   ar
     6    19    18    1
     7    18    20   ar
     8    12    11    1
     9    10     9    1
    10    11     9   ar
    11    11     2   ar
    12     9     7   ar
    13    13     1    1
    14    13    22   ar
    15     1     2    1
    16     1    24    1
    17     2     3   ar
    18     7     8    1
    19     7     5   ar
    20    20    22   ar
    21    20    21    1
    22    22    23    1
    23     3     5   ar
    24     3     4    1
    25     5     6    1
    26    26    25    1
    27    24    25   ar
    28    24    33   ar
    29    25    27   ar
    30    34    33    1
    31    33    31   ar
    32    27    28    1
    33    27    29   ar
    34    31    29   ar
    35    31    32    1
    36    29    30    1
