@<TRIPOS>MOLECULE
1
 34 36 0 0 0
SMALL
GASTEIGER

@<TRIPOS>ATOM
      1 P          15.3259   11.6031   10.1252 P.3     1  UNL1       -0.0131
      2 C          16.1382   13.1737   10.5872 C.ar    1  UNL1       -0.0147
      3 C          16.5726   13.3607   11.8927 C.ar    1  UNL1       -0.0535
      4 H          16.4529   12.5620   12.6108 H       1  UNL1        0.0624
      5 C          17.1721   14.5493   12.2686 C.ar    1  UNL1       -0.0611
      6 H          17.5200   14.6776   13.2827 H       1  UNL1        0.0618
      7 C          17.3331   15.5644   11.3413 C.ar    1  UNL1       -0.0617
      8 H          17.8082   16.4903   11.6294 H       1  UNL1        0.0618
      9 C          16.8844   15.3916   10.0410 C.ar    1  UNL1       -0.0611
     10 H          17.0037   16.1855    9.3184 H       1  UNL1        0.0618
     11 C          16.2871   14.2044    9.6616 C.ar    1  UNL1       -0.0535
     12 H          15.9365   14.0717    8.6478 H       1  UNL1        0.0624
     13 C          13.5745   12.1290   10.0184 C.ar    1  UNL1       -0.0147
     14 C          13.1403   13.3768   10.4532 C.ar    1  UNL1       -0.0535
     15 H          13.8484   14.0876   10.8550 H       1  UNL1        0.0624
     16 C          11.7990   13.7124   10.3744 C.ar    1  UNL1       -0.0611
     17 H          11.4713   14.6837   10.7153 H       1  UNL1        0.0618
     18 C          10.8811   12.8114    9.8621 C.ar    1  UNL1       -0.0617
     19 H           9.8368   13.0790    9.7989 H       1  UNL1        0.0618
     20 C          11.3056   11.5622    9.4376 C.ar    1  UNL1       -0.0611
     21 H          10.5935   10.8520    9.0430 H       1  UNL1        0.0618
     22 C          12.6423   11.2165    9.5235 C.ar    1  UNL1       -0.0535
     23 H          12.9708   10.2324    9.2136 H       1  UNL1        0.0624
     24 C          15.8042   11.5143    8.3605 C.ar    1  UNL1       -0.0147
     25 C          17.1714   11.5752    8.0938 C.ar    1  UNL1       -0.0535
     26 H          17.8651   11.6723    8.9151 H       1  UNL1        0.0624
     27 C          17.6339   11.5162    6.7934 C.ar    1  UNL1       -0.0611
     28 H          18.6949   11.5683    6.6011 H       1  UNL1        0.0618
     29 C          16.7390   11.3836    5.7431 C.ar    1  UNL1       -0.0617
     30 H          17.0987   11.3300    4.7263 H       1  UNL1        0.0618
     31 C          15.3810   11.3230    6.0028 C.ar    1  UNL1       -0.0611
     32 H          14.6782   11.2235    5.1887 H       1  UNL1        0.0618
     33 C          14.9104   11.3922    7.3035 C.ar    1  UNL1       -0.0535
     34 H          13.8469   11.3591    7.4795 H       1  UNL1        0.0624
@<TRIPOS>BOND
     1    30    29    1
     2    32    31    1
     3    29    31   ar
     4    29    27   ar
     5    31    33   ar
     6    28    27    1
     7    27    25   ar
     8    33    34    1
     9    33    24   ar
    10    25    24   ar
    11    25    26    1
    12    24     1    1
    13    12    11    1
    14    21    20    1
    15    23    22    1
    16    10     9    1
    17    20    22   ar
    18    20    18   ar
    19    22    13   ar
    20    11     9   ar
    21    11     2   ar
    22    19    18    1
    23    18    16   ar
    24    13     1    1
    25    13    14   ar
    26     9     7   ar
    27     1     2    1
    28    16    14   ar
    29    16    17    1
    30    14    15    1
    31     2     3   ar
    32     7     8    1
    33     7     5   ar
    34     3     5   ar
    35     3     4    1
    36     5     6    1
