@<TRIPOS>MOLECULE
1
 42 43 0 0 0
SMALL
GASTEIGER

@<TRIPOS>ATOM
      1 P          20.8072    2.3346    8.1564 P.3     1  UNL1        0.0000
      2 S          16.6363    3.9496    7.6840 S.2     1  UNL1        0.0000
      3 N          18.7101    1.9376    6.7040 N.2     1  UNL1        0.0000
      4 N          20.8077    1.0528    7.0922 N.pl3   1  UNL1        0.0000
      5 SI         21.9215    4.4487    6.0923 Si      1  UNL1        0.0000
      6 SI         23.7350    2.1215    7.5575 Si      1  UNL1        0.0000
      7 C          19.1601    2.8566    7.5188 C.3     1  UNL1        0.0000
      8 C          19.6640    1.0011    6.4854 C.2     1  UNL1        0.0000
      9 C          22.2282    3.3485    7.6511 C.3     1  UNL1        0.0000
     10 C          21.1285    3.4798    4.6595 C.3     1  UNL1        0.0000
     11 H          20.0664    3.3276    4.8278 H       1  UNL1        0.0000
     12 H          21.5801    2.5034    4.5252 H       1  UNL1        0.0000
     13 H          21.2334    4.0251    3.7263 H       1  UNL1        0.0000
     14 C          20.8250    5.9627    6.4917 C.3     1  UNL1        0.0000
     15 H          21.1062    6.4397    7.4259 H       1  UNL1        0.0000
     16 H          19.7712    5.7121    6.5494 H       1  UNL1        0.0000
     17 H          20.9371    6.7057    5.7078 H       1  UNL1        0.0000
     18 C          23.5980    5.1947    5.5658 C.3     1  UNL1        0.0000
     19 H          23.4605    5.8203    4.6899 H       1  UNL1        0.0000
     20 H          24.3432    4.4476    5.3206 H       1  UNL1        0.0000
     21 H          24.0084    5.8247    6.3484 H       1  UNL1        0.0000
     22 C          23.9612    1.4648    5.7818 C.3     1  UNL1        0.0000
     23 C          25.2407    3.1290    8.1569 C.3     1  UNL1        0.0000
     24 C          23.5922    0.5684    8.6459 C.3     1  UNL1        0.0000
     25 C          18.3441    3.8993    8.0185 C.ar    1  UNL1        0.0000
     26 C          18.7276    4.9662    8.8015 C.ar    1  UNL1        0.0000
     27 C          17.6619    5.8112    9.1310 C.ar    1  UNL1        0.0000
     28 C          16.4782    5.3863    8.5969 C.ar    1  UNL1        0.0000
     29 H          19.4352    0.1991    5.7980 H       1  UNL1        0.0000
     30 H          22.4039    4.0092    8.5055 H       1  UNL1        0.0000
     31 H          23.1274    0.8253    5.5098 H       1  UNL1        0.0000
     32 H          24.8642    0.8651    5.7253 H       1  UNL1        0.0000
     33 H          24.0414    2.2476    5.0368 H       1  UNL1        0.0000
     34 H          26.1445    2.5384    8.0584 H       1  UNL1        0.0000
     35 H          25.1443    3.4016    9.2034 H       1  UNL1        0.0000
     36 H          25.3824    4.0417    7.5900 H       1  UNL1        0.0000
     37 H          23.5202    0.7904    9.7058 H       1  UNL1        0.0000
     38 H          24.4638   -0.0655    8.5075 H       1  UNL1        0.0000
     39 H          22.7189   -0.0075    8.3587 H       1  UNL1        0.0000
     40 H          19.7488    5.1240    9.1033 H       1  UNL1        0.0000
     41 H          17.7600    6.6926    9.7382 H       1  UNL1        0.0000
     42 H          15.5145    5.8459    8.6963 H       1  UNL1        0.0000
@<TRIPOS>BOND
     1    13    10    1
     2    12    10    1
     3    10    11    1
     4    10     5    1
     5    19    18    1
     6    33    22    1
     7    20    18    1
     8    31    22    1
     9    18     5    1
    10    18    21    1
    11    17    14    1
    12    32    22    1
    13    22     6    1
    14    29     8    1
    15     5    14    1
    16     5     9    1
    17     8     3    2
    18     8     4    1
    19    14    16    1
    20    14    15    1
    21     3     7    1
    22     4     1    1
    23     7    25    1
    24     7     1    1
    25     6     9    1
    26     6    23    1
    27     6    24    1
    28    36    23    1
    29     9     1    1
    30     9    30    1
    31     2    25   ar
    32     2    28   ar
    33    25    26   ar
    34    34    23    1
    35    23    35    1
    36    39    24    1
    37    38    24    1
    38    28    42    1
    39    28    27   ar
    40    24    37    1
    41    26    40    1
    42    26    27   ar
    43    27    41    1
