@<TRIPOS>MOLECULE
34
 34 36 0 0 0
SMALL
GASTEIGER

@<TRIPOS>ATOM
      1 C           5.4022    3.2178   15.1587 C.ar    1  UNL1       -0.0147
      2 C           5.3663    4.6049   15.0400 C.ar    1  UNL1       -0.0535
      3 H           4.8207    5.0564   14.2228 H       1  UNL1        0.0624
      4 C           6.0225    5.4022   15.9585 C.ar    1  UNL1       -0.0611
      5 H           5.9826    6.4776   15.8608 H       1  UNL1        0.0618
      6 C           6.7347    4.8219   16.9968 C.ar    1  UNL1       -0.0617
      7 H           7.2473    5.4446   17.7154 H       1  UNL1        0.0618
      8 C           6.7968    3.4422   17.1043 C.ar    1  UNL1       -0.0611
      9 H           7.3628    2.9887   17.9049 H       1  UNL1        0.0618
     10 C           6.1388    2.6421   16.1871 C.ar    1  UNL1       -0.0535
     11 H           6.1929    1.5655   16.2654 H       1  UNL1        0.0624
     12 C           2.9259    2.9022   13.7597 C.ar    1  UNL1       -0.0147
     13 C           2.3901    3.7837   14.6931 C.ar    1  UNL1       -0.0535
     14 H           2.9830    4.1294   15.5279 H       1  UNL1        0.0624
     15 C           1.0871    4.2291   14.5569 C.ar    1  UNL1       -0.0611
     16 H           0.6807    4.9169   15.2850 H       1  UNL1        0.0618
     17 C           0.3051    3.7963   13.4994 C.ar    1  UNL1       -0.0617
     18 H          -0.7105    4.1508   13.3983 H       1  UNL1        0.0618
     19 C           0.8274    2.9029   12.5792 C.ar    1  UNL1       -0.0611
     20 H           0.2194    2.5518   11.7584 H       1  UNL1        0.0618
     21 C           2.1288    2.4555   12.7092 C.ar    1  UNL1       -0.0535
     22 H           2.5337    1.7496   11.9968 H       1  UNL1        0.0624
     23 C           4.1915    0.6755   14.8122 C.ar    1  UNL1       -0.0147
     24 C           3.4698    0.7873   15.9991 C.ar    1  UNL1       -0.0535
     25 H           3.1839    1.7639   16.3650 H       1  UNL1        0.0624
     26 C           3.1228   -0.3463   16.7075 C.ar    1  UNL1       -0.0611
     27 H           2.5646   -0.2551   17.6283 H       1  UNL1        0.0618
     28 C           3.4847   -1.5993   16.2359 C.ar    1  UNL1       -0.0617
     29 H           3.2071   -2.4840   16.7903 H       1  UNL1        0.0618
     30 C           4.1949   -1.7139   15.0539 C.ar    1  UNL1       -0.0611
     31 H           4.4710   -2.6892   14.6811 H       1  UNL1        0.0618
     32 C           4.5488   -0.5801   14.3421 C.ar    1  UNL1       -0.0535
     33 H           5.0882   -0.6637   13.4101 H       1  UNL1        0.0624
     34 P           4.6093    2.1898   13.8818 P.3     1  UNL1       -0.0131
@<TRIPOS>BOND
     1    20    19    1
     2    22    21    1
     3    19    21   ar
     4    19    17   ar
     5    21    12   ar
     6    18    17    1
     7    33    32    1
     8    17    15   ar
     9    12    34    1
    10    12    13   ar
    11    34    23    1
    12    34     1    1
    13     3     2    1
    14    32    23   ar
    15    32    30   ar
    16    15    13   ar
    17    15    16    1
    18    31    30    1
    19    13    14    1
    20    23    24   ar
    21     2     1   ar
    22     2     4   ar
    23    30    28   ar
    24     1    10   ar
    25     5     4    1
    26     4     6   ar
    27    24    25    1
    28    24    26   ar
    29    10    11    1
    30    10     8   ar
    31    28    26   ar
    32    28    29    1
    33    26    27    1
    34     6     8   ar
    35     6     7    1
    36     8     9    1
