@<TRIPOS>MOLECULE
13
 13 12 0 0 0
SMALL
GASTEIGER

@<TRIPOS>ATOM
      1 C          19.2276    3.3494    7.7137 C.3     1  UNL1       -0.0447
      2 H          19.5815    3.1578    6.6999 H       1  UNL1        0.0277
      3 H          18.7295    2.4589    8.0962 H       1  UNL1        0.0277
      4 H          20.0777    3.5764    8.3570 H       1  UNL1        0.0277
      5 C          19.0521    5.9830    6.7798 C.3     1  UNL1       -0.0447
      6 H          19.3640    5.5570    5.8256 H       1  UNL1        0.0277
      7 H          19.9329    6.2456    7.3656 H       1  UNL1        0.0277
      8 H          18.4713    6.8861    6.6061 H       1  UNL1        0.0277
      9 C          16.8629    4.1881    6.4552 C.3     1  UNL1       -0.0447
     10 H          17.3879    3.9124    5.5401 H       1  UNL1        0.0277
     11 H          16.1422    4.9741    6.2420 H       1  UNL1        0.0277
     12 H          16.3278    3.3213    6.8431 H       1  UNL1        0.0277
     13 P          18.0561    4.7646    7.7209 P.3     1  UNL1       -0.1154
@<TRIPOS>BOND
     1    10     9    1
     2     6     5    1
     3    11     9    1
     4     9    12    1
     5     9    13    1
     6     8     5    1
     7     2     1    1
     8     5     7    1
     9     5    13    1
    10     1    13    1
    11     1     3    1
    12     1     4    1
