@<TRIPOS>MOLECULE
1
 13 12 0 0 0
SMALL
GASTEIGER

@<TRIPOS>ATOM
      1 P           5.4951    5.3189    5.4696 P.3     1  UNL1       -0.1154
      2 C           6.1047    3.8978    4.4842 C.3     1  UNL1       -0.0447
      3 H           6.7400    4.2478    3.6700 H       1  UNL1        0.0277
      4 H           5.2489    3.3621    4.0740 H       1  UNL1        0.0277
      5 H           6.6649    3.2178    5.1220 H       1  UNL1        0.0277
      6 C           7.0393    6.2584    5.7707 C.3     1  UNL1       -0.0447
      7 H           7.5806    6.4060    4.8357 H       1  UNL1        0.0277
      8 H           7.6654    5.7182    6.4772 H       1  UNL1        0.0277
      9 H           6.7837    7.2262    6.2015 H       1  UNL1        0.0277
     10 C           4.7671    6.3334    4.1222 C.3     1  UNL1       -0.0447
     11 H           5.4836    6.4535    3.3088 H       1  UNL1        0.0277
     12 H           4.4935    7.3136    4.5113 H       1  UNL1        0.0277
     13 H           3.8684    5.8452    3.7459 H       1  UNL1        0.0277
@<TRIPOS>BOND
     1    11    10    1
     2     3     2    1
     3    13    10    1
     4     4     2    1
     5    10    12    1
     6    10     1    1
     7     2     5    1
     8     2     1    1
     9     7     6    1
    10     1     6    1
    11     6     9    1
    12     6     8    1
