@<TRIPOS>MOLECULE
1
 33 34 0 0 0
SMALL
GASTEIGER

@<TRIPOS>ATOM
      1 P           4.1061    2.2129   10.2053 P.3     1  UNL1        0.0000
      2 SI          1.4610    1.6159    8.6621 Si      1  UNL1        0.0000
      3 C           3.3052    2.1132    8.6695 C.3     1  UNL1        0.0000
      4 C           6.1835    2.7048    8.4762 C.2     1  UNL1        0.0000
      5 H           7.2346    2.9022    8.3048 H       1  UNL1        0.0000
      6 C           3.9942    2.3132    7.4835 C.2     1  UNL1        0.0000
      7 H           3.4328    2.2332    6.5625 H       1  UNL1        0.0000
      8 C           5.7667    2.5267    9.7866 C.2     1  UNL1        0.0000
      9 C           0.4346    3.0448    9.3945 C.3     1  UNL1        0.0000
     10 H           0.8837    3.4322   10.3057 H       1  UNL1        0.0000
     11 H          -0.5731    2.7202    9.6351 H       1  UNL1        0.0000
     12 H           0.3543    3.8698    8.6919 H       1  UNL1        0.0000
     13 C           5.3425    2.6164    7.3811 C.2     1  UNL1        0.0000
     14 H           5.7624    2.7714    6.3972 H       1  UNL1        0.0000
     15 C           6.7639    1.5586   11.8353 C.ar    1  UNL1        0.0000
     16 H           6.0808    0.7247   11.7269 H       1  UNL1        0.0000
     17 C           1.3552   -0.0087    9.6584 C.3     1  UNL1        0.0000
     18 H           1.6361   -0.8619    9.0469 H       1  UNL1        0.0000
     19 H           0.3498   -0.1875   10.0261 H       1  UNL1        0.0000
     20 H           2.0236    0.0126   10.5177 H       1  UNL1        0.0000
     21 C           8.5745    2.6337   12.9782 C.ar    1  UNL1        0.0000
     22 H           9.2790    2.6632   13.7957 H       1  UNL1        0.0000
     23 C           6.7445    2.5761   10.8825 C.ar    1  UNL1        0.0000
     24 C           7.6639    3.6166   10.9863 C.ar    1  UNL1        0.0000
     25 H           7.6484    4.4157   10.2589 H       1  UNL1        0.0000
     26 C           8.5670    3.6461   12.0324 C.ar    1  UNL1        0.0000
     27 H           9.2658    4.4654   12.1138 H       1  UNL1        0.0000
     28 C           7.6777    1.5837   12.8725 C.ar    1  UNL1        0.0000
     29 H           7.6853    0.7869   13.6014 H       1  UNL1        0.0000
     30 C           0.8782    1.2881    6.8780 C.3     1  UNL1        0.0000
     31 H           0.9112    2.1870    6.2708 H       1  UNL1        0.0000
     32 H          -0.1483    0.9369    6.8787 H       1  UNL1        0.0000
     33 H           1.4808    0.5302    6.3877 H       1  UNL1        0.0000
@<TRIPOS>BOND
     1    31    30    1
     2    33    30    1
     3    14    13    1
     4     7     6    1
     5    30    32    1
     6    30     2    1
     7    13     6    2
     8    13     4    1
     9     6     3    1
    10     5     4    1
    11     4     8    2
    12     2     3    1
    13     2     9    1
    14     2    17    1
    15     3     1    1
    16    12     9    1
    17    18    17    1
    18     9    11    1
    19     9    10    1
    20    17    19    1
    21    17    20    1
    22     8     1    1
    23     8    23    1
    24    25    24    1
    25    23    24   ar
    26    23    15   ar
    27    24    26   ar
    28    16    15    1
    29    15    28   ar
    30    26    27    1
    31    26    21   ar
    32    28    21   ar
    33    28    29    1
    34    21    22    1
