@<TRIPOS>MOLECULE
1
 13 12 0 0 0
SMALL
GASTEIGER

@<TRIPOS>ATOM
      1 P           1.0115    4.4214    2.7551 P.3     1  UNL1       -0.1154
      2 C           0.2753    2.7968    2.2609 C.3     1  UNL1       -0.0447
      3 C           0.8252    5.3283    1.1587 C.3     1  UNL1       -0.0447
      4 C          -0.4803    5.1120    3.5861 C.3     1  UNL1       -0.0447
      5 H          -0.7244    2.9396    1.8520 H       1  UNL1        0.0277
      6 H           0.8978    2.3096    1.5145 H       1  UNL1        0.0277
      7 H           0.2164    2.1533    3.1374 H       1  UNL1        0.0277
      8 H           0.8268    6.3953    1.3671 H       1  UNL1        0.0277
      9 H           1.6500    5.1163    0.4824 H       1  UNL1        0.0277
     10 H          -0.1143    5.0542    0.6792 H       1  UNL1        0.0277
     11 H          -0.3004    6.1575    3.8164 H       1  UNL1        0.0277
     12 H          -1.3526    5.0278    2.9386 H       1  UNL1        0.0277
     13 H          -0.6676    4.5783    4.5157 H       1  UNL1        0.0277
@<TRIPOS>BOND
     1     9     3    1
     2    10     3    1
     3     3     8    1
     4     3     1    1
     5     6     2    1
     6     5     2    1
     7     2     1    1
     8     2     7    1
     9     1     4    1
    10    12     4    1
    11     4    11    1
    12     4    13    1
