@<TRIPOS>MOLECULE
1
 13 12 0 0 0
SMALL
GASTEIGER

@<TRIPOS>ATOM
      1 P          14.0329    6.0165   15.9799 P.3     1  UNL1       -0.1154
      2 C          15.2650    4.7090   16.3219 C.3     1  UNL1       -0.0447
      3 H          16.0229    5.1239   16.9849 H       1  UNL1        0.0277
      4 H          15.7285    4.3664   15.3962 H       1  UNL1        0.0277
      5 H          14.7733    3.8762   16.8221 H       1  UNL1        0.0277
      6 C          12.9924    5.1422   14.7390 C.3     1  UNL1       -0.0447
      7 H          12.4661    4.3313   15.2367 H       1  UNL1        0.0277
      8 H          13.6180    4.7371   13.9444 H       1  UNL1        0.0277
      9 H          12.2569    5.8194   14.3125 H       1  UNL1        0.0277
     10 C          15.0547    7.0770   14.8839 C.3     1  UNL1       -0.0447
     11 H          14.4627    7.8695   14.4318 H       1  UNL1        0.0277
     12 H          15.4979    6.4618   14.1005 H       1  UNL1        0.0277
     13 H          15.8393    7.5250   15.4916 H       1  UNL1        0.0277
@<TRIPOS>BOND
     1     8     6    1
     2    12    10    1
     3     9     6    1
     4    11    10    1
     5     6     7    1
     6     6     1    1
     7    10    13    1
     8    10     1    1
     9     4     2    1
    10     1     2    1
    11     2     5    1
    12     2     3    1
