@<TRIPOS>MOLECULE
1
 13 12 0 0 0
SMALL
GASTEIGER

@<TRIPOS>ATOM
      1 P          12.2893    8.6819   16.9520 P.3     1  UNL1       -0.1154
      2 C          10.8684    9.5333   17.7520 C.3     1  UNL1       -0.0447
      3 H          10.1601    8.8029   18.1374 H       1  UNL1        0.0277
      4 H          10.3700   10.1818   17.0319 H       1  UNL1        0.0277
      5 H          11.2317   10.1350   18.5819 H       1  UNL1        0.0277
      6 C          11.5933    8.5531   15.2537 C.3     1  UNL1       -0.0447
      7 H          12.3515    8.1918   14.5633 H       1  UNL1        0.0277
      8 H          11.2442    9.5309   14.9211 H       1  UNL1        0.0277
      9 H          10.7619    7.8529   15.2597 H       1  UNL1        0.0277
     10 C          13.3952   10.1217   16.7193 C.3     1  UNL1       -0.0447
     11 H          13.7707   10.4337   17.6931 H       1  UNL1        0.0277
     12 H          12.8535   10.9424   16.2476 H       1  UNL1        0.0277
     13 H          14.2472    9.8292   16.1085 H       1  UNL1        0.0277
@<TRIPOS>BOND
     1     7     6    1
     2     8     6    1
     3     6     9    1
     4     6     1    1
     5    13    10    1
     6    12    10    1
     7    10     1    1
     8    10    11    1
     9     1     2    1
    10     4     2    1
    11     2     3    1
    12     2     5    1
