@<TRIPOS>MOLECULE
1
 13 12 0 0 0
SMALL
GASTEIGER

@<TRIPOS>ATOM
      1 P          -0.9744    3.2477    0.9907 P.3     1  UNL1       -0.1154
      2 C          -0.0764    3.1984   -0.5961 C.3     1  UNL1       -0.0447
      3 C          -1.5927    4.9709    0.9874 C.3     1  UNL1       -0.0447
      4 C          -2.5319    2.3929    0.5270 C.3     1  UNL1       -0.0447
      5 H           0.2332    2.1777   -0.8093 H       1  UNL1        0.0277
      6 H           0.8127    3.8210   -0.5180 H       1  UNL1        0.0277
      7 H          -0.7240    3.5685   -1.3913 H       1  UNL1        0.0277
      8 H          -0.7760    5.6555    1.2019 H       1  UNL1        0.0277
      9 H          -2.3707    5.0766    1.7392 H       1  UNL1        0.0277
     10 H          -2.0062    5.1967    0.0048 H       1  UNL1        0.0277
     11 H          -2.3213    1.3910    0.1644 H       1  UNL1        0.0277
     12 H          -3.0223    2.9601   -0.2634 H       1  UNL1        0.0277
     13 H          -3.1897    2.3443    1.3918 H       1  UNL1        0.0277
@<TRIPOS>BOND
     1     7     2    1
     2     5     2    1
     3     2     6    1
     4     2     1    1
     5    12     4    1
     6    10     3    1
     7    11     4    1
     8     4     1    1
     9     4    13    1
    10     3     1    1
    11     3     8    1
    12     3     9    1
