@<TRIPOS>MOLECULE
1
 13 12 0 0 0
SMALL
GASTEIGER

@<TRIPOS>ATOM
      1 P           2.1696    2.6006    4.3793 P.3     1  UNL1       -0.1154
      2 C           3.7391    2.1650    3.5587 C.3     1  UNL1       -0.0447
      3 C           2.1964    1.5754    5.9031 C.3     1  UNL1       -0.0447
      4 C           2.5953    4.2069    5.1421 C.3     1  UNL1       -0.0447
      5 H           3.9153    2.8955    2.7701 H       1  UNL1        0.0277
      6 H           3.6631    1.1823    3.0979 H       1  UNL1        0.0277
      7 H           4.5591    2.1841    4.2768 H       1  UNL1        0.0277
      8 H           2.0515    0.5204    5.6934 H       1  UNL1        0.0277
      9 H           1.3971    1.9194    6.5562 H       1  UNL1        0.0277
     10 H           3.1545    1.7133    6.4036 H       1  UNL1        0.0277
     11 H           2.6648    4.9745    4.3754 H       1  UNL1        0.0277
     12 H           3.5510    4.1143    5.6578 H       1  UNL1        0.0277
     13 H           1.8217    4.4754    5.8577 H       1  UNL1        0.0277
@<TRIPOS>BOND
     1     5     2    1
     2     6     2    1
     3     2     7    1
     4     2     1    1
     5    11     4    1
     6     1     4    1
     7     1     3    1
     8     4    12    1
     9     4    13    1
    10     8     3    1
    11     3    10    1
    12     3     9    1
