@<TRIPOS>MOLECULE
1
 13 12 0 0 0
SMALL
GASTEIGER

@<TRIPOS>ATOM
      1 P          -0.3584    0.4721    3.3378 P.3     1  UNL1       -0.1154
      2 C          -1.3343    0.2525    4.8786 C.3     1  UNL1       -0.0447
      3 C          -1.4711   -0.3683    2.1575 C.3     1  UNL1       -0.0447
      4 C           0.9160   -0.8368    3.5316 C.3     1  UNL1       -0.0447
      5 H          -0.7519    0.5727    5.7389 H       1  UNL1        0.0277
      6 H          -1.6266   -0.7898    4.9988 H       1  UNL1        0.0277
      7 H          -2.2260    0.8725    4.8229 H       1  UNL1        0.0277
      8 H          -2.4420    0.1205    2.1567 H       1  UNL1        0.0277
      9 H          -1.5864   -1.4072    2.4682 H       1  UNL1        0.0277
     10 H          -1.0287   -0.3339    1.1644 H       1  UNL1        0.0277
     11 H           1.8711   -0.4114    3.8250 H       1  UNL1        0.0277
     12 H           1.0544   -1.3201    2.5671 H       1  UNL1        0.0277
     13 H           0.5880   -1.5643    4.2734 H       1  UNL1        0.0277
@<TRIPOS>BOND
     1    10     3    1
     2     8     3    1
     3     3     9    1
     4     3     1    1
     5    12     4    1
     6     1     4    1
     7     1     2    1
     8     4    11    1
     9     4    13    1
    10     7     2    1
    11     2     6    1
    12     2     5    1
