@<TRIPOS>MOLECULE
1
 31 30 0 0 0
SMALL
GASTEIGER

@<TRIPOS>ATOM
      1 P          13.3216    4.3616   18.4121 P.3     1  UNL1       -0.0980
      2 C          15.0867    5.0334   18.4958 C.3     1  UNL1       -0.0257
      3 H          15.6303    4.2619   17.9386 H       1  UNL1        0.0344
      4 C          13.6293    2.7069   19.2763 C.3     1  UNL1       -0.0257
      5 H          13.9266    2.9097   20.3086 H       1  UNL1        0.0344
      6 C          12.5365    4.9493   21.2086 C.3     1  UNL1       -0.0587
      7 H          11.8608    5.5700   21.7983 H       1  UNL1        0.0236
      8 H          13.5506    5.1748   21.5212 H       1  UNL1        0.0236
      9 H          12.3194    3.9114   21.4482 H       1  UNL1        0.0236
     10 C          12.3262    1.9199   19.2788 C.3     1  UNL1       -0.0587
     11 H          12.4525    0.9584   19.7764 H       1  UNL1        0.0236
     12 H          12.0176    1.7364   18.2515 H       1  UNL1        0.0236
     13 H          11.5386    2.4668   19.7916 H       1  UNL1        0.0236
     14 C          14.7184    1.8786   18.6044 C.3     1  UNL1       -0.0587
     15 H          14.7090    0.8668   19.0089 H       1  UNL1        0.0236
     16 H          15.7073    2.2939   18.7736 H       1  UNL1        0.0236
     17 H          14.5430    1.8218   17.5319 H       1  UNL1        0.0236
     18 C          15.7091    5.1595   19.8852 C.3     1  UNL1       -0.0587
     19 H          16.7749    5.3597   19.7783 H       1  UNL1        0.0236
     20 H          15.5996    4.2522   20.4720 H       1  UNL1        0.0236
     21 H          15.2746    5.9916   20.4321 H       1  UNL1        0.0236
     22 C          12.3740    6.7610   19.4757 C.3     1  UNL1       -0.0587
     23 H          11.5291    7.2652   19.9445 H       1  UNL1        0.0236
     24 H          12.3496    6.9570   18.4046 H       1  UNL1        0.0236
     25 H          13.2858    7.1840   19.8890 H       1  UNL1        0.0236
     26 C          15.2830    6.3369   17.7280 C.3     1  UNL1       -0.0587
     27 H          16.3461    6.5060   17.5653 H       1  UNL1        0.0236
     28 H          14.8870    7.1859   18.2758 H       1  UNL1        0.0236
     29 H          14.7846    6.2783   16.7635 H       1  UNL1        0.0236
     30 C          12.3085    5.2570   19.7301 C.3     1  UNL1       -0.0257
     31 H          11.2908    4.9299   19.4847 H       1  UNL1        0.0344
@<TRIPOS>BOND
     1    29    26    1
     2    17    14    1
     3    27    26    1
     4    26    28    1
     5    26     2    1
     6     3     2    1
     7    12    10    1
     8    24    22    1
     9     1     2    1
    10     1     4    1
    11     1    30    1
    12     2    18    1
    13    14    16    1
    14    14    15    1
    15    14     4    1
    16     4    10    1
    17     4     5    1
    18    10    11    1
    19    10    13    1
    20    22    30    1
    21    22    25    1
    22    22    23    1
    23    31    30    1
    24    30     6    1
    25    19    18    1
    26    18    21    1
    27    18    20    1
    28     6     9    1
    29     6     8    1
    30     6     7    1
