@<TRIPOS>MOLECULE
1
 34 36 0 0 0
SMALL
GASTEIGER

@<TRIPOS>ATOM
      1 P           2.8482    6.9203   15.3344 P.3     1  UNL1       -0.0131
      2 C           3.2624    8.6711   14.9441 C.ar    1  UNL1       -0.0147
      3 C           2.1750    9.5259   14.7720 C.ar    1  UNL1       -0.0535
      4 H           1.1703    9.1282   14.8607 H       1  UNL1        0.0624
      5 C           2.3675   10.8668   14.5061 C.ar    1  UNL1       -0.0611
      6 H           1.5167   11.5207   14.3744 H       1  UNL1        0.0618
      7 C           3.6538   11.3745   14.4156 C.ar    1  UNL1       -0.0617
      8 H           3.8065   12.4261   14.2160 H       1  UNL1        0.0618
      9 C           4.7382   10.5325   14.5877 C.ar    1  UNL1       -0.0611
     10 H           5.7442   10.9227   14.5238 H       1  UNL1        0.0618
     11 C           4.5486    9.1858   14.8473 C.ar    1  UNL1       -0.0535
     12 H           5.4057    8.5419   14.9754 H       1  UNL1        0.0624
     13 C           2.0718    7.2690   16.9557 C.ar    1  UNL1       -0.0147
     14 C           2.6905    8.1365   17.8541 C.ar    1  UNL1       -0.0535
     15 H           3.6382    8.5903   17.5956 H       1  UNL1        0.0624
     16 C           2.0949    8.4132   19.0697 C.ar    1  UNL1       -0.0611
     17 H           2.5794    9.0833   19.7654 H       1  UNL1        0.0618
     18 C           0.8770    7.8358   19.3964 C.ar    1  UNL1       -0.0617
     19 H           0.4138    8.0574   20.3470 H       1  UNL1        0.0618
     20 C           0.2554    6.9810   18.5026 C.ar    1  UNL1       -0.0611
     21 H          -0.6960    6.5340   18.7512 H       1  UNL1        0.0618
     22 C           0.8511    6.6979   17.2854 C.ar    1  UNL1       -0.0535
     23 H           0.3739    6.0366   16.5778 H       1  UNL1        0.0624
     24 C           4.4784    6.2574   15.8005 C.ar    1  UNL1       -0.0147
     25 C           4.8126    5.8522   17.0866 C.ar    1  UNL1       -0.0535
     26 H           4.0954    5.9409   17.8900 H       1  UNL1        0.0624
     27 C           6.0665    5.3232   17.3402 C.ar    1  UNL1       -0.0611
     28 H           6.3197    5.0058   18.3418 H       1  UNL1        0.0618
     29 C           6.9917    5.1945   16.3188 C.ar    1  UNL1       -0.0617
     30 H           7.9675    4.7782   16.5225 H       1  UNL1        0.0618
     31 C           6.6625    5.5950   15.0330 C.ar    1  UNL1       -0.0611
     32 H           7.3788    5.4946   14.2311 H       1  UNL1        0.0618
     33 C           5.4108    6.1188   14.7731 C.ar    1  UNL1       -0.0535
     34 H           5.1452    6.4285   13.7694 H       1  UNL1        0.0624
@<TRIPOS>BOND
     1    34    33    1
     2     8     7    1
     3    32    31    1
     4     6     5    1
     5     7     5   ar
     6     7     9   ar
     7     5     3   ar
     8    10     9    1
     9     9    11   ar
    10     3     4    1
    11     3     2   ar
    12    33    31   ar
    13    33    24   ar
    14    11     2   ar
    15    11    12    1
    16     2     1    1
    17    31    29   ar
    18     1    24    1
    19     1    13    1
    20    24    25   ar
    21    29    30    1
    22    29    27   ar
    23    23    22    1
    24    13    22   ar
    25    13    14   ar
    26    25    27   ar
    27    25    26    1
    28    22    20   ar
    29    27    28    1
    30    15    14    1
    31    14    16   ar
    32    20    21    1
    33    20    18   ar
    34    16    18   ar
    35    16    17    1
    36    18    19    1
