@<TRIPOS>MOLECULE
1
 34 36 0 0 0
SMALL
GASTEIGER

@<TRIPOS>ATOM
      1 P           6.7735    3.2178    5.6522 P.3     1  UNL1       -0.0131
      2 C           6.8486    5.0329    5.8531 C.ar    1  UNL1       -0.0147
      3 C           7.9467    5.7772    5.4365 C.ar    1  UNL1       -0.0535
      4 H           8.8300    5.2708    5.0723 H       1  UNL1        0.0624
      5 C           7.9066    7.1601    5.4892 C.ar    1  UNL1       -0.0611
      6 H           8.7630    7.7342    5.1646 H       1  UNL1        0.0618
      7 C           6.7763    7.8084    5.9570 C.ar    1  UNL1       -0.0617
      8 H           6.7484    8.8875    5.9953 H       1  UNL1        0.0618
      9 C           5.6795    7.0707    6.3752 C.ar    1  UNL1       -0.0611
     10 H           4.7969    7.5739    6.7416 H       1  UNL1        0.0618
     11 C           5.7104    5.6911    6.3160 C.ar    1  UNL1       -0.0535
     12 H           4.8518    5.1086    6.6249 H       1  UNL1        0.0624
     13 C           8.5447    2.7700    5.7012 C.ar    1  UNL1       -0.0147
     14 C           9.1741    2.4188    6.8907 C.ar    1  UNL1       -0.0535
     15 H           8.6157    2.3907    7.8144 H       1  UNL1        0.0624
     16 C          10.5164    2.0844    6.8898 C.ar    1  UNL1       -0.0611
     17 H          10.9955    1.8028    7.8161 H       1  UNL1        0.0618
     18 C          11.2408    2.0969    5.7101 C.ar    1  UNL1       -0.0617
     19 H          12.2855    1.8231    5.7138 H       1  UNL1        0.0618
     20 C          10.6194    2.4497    4.5237 C.ar    1  UNL1       -0.0611
     21 H          11.1736    2.4512    3.5970 H       1  UNL1        0.0618
     22 C           9.2785    2.7840    4.5178 C.ar    1  UNL1       -0.0535
     23 H           8.7947    3.0393    3.5852 H       1  UNL1        0.0624
     24 C           6.2018    2.6465    7.2851 C.ar    1  UNL1       -0.0147
     25 C           5.7256    1.3412    7.3700 C.ar    1  UNL1       -0.0535
     26 H           5.7009    0.7286    6.4783 H       1  UNL1        0.0624
     27 C           5.3077    0.8303    8.5850 C.ar    1  UNL1       -0.0611
     28 H           4.9391   -0.1827    8.6422 H       1  UNL1        0.0618
     29 C           5.3620    1.6174    9.7240 C.ar    1  UNL1       -0.0617
     30 H           5.0290    1.2221   10.6722 H       1  UNL1        0.0618
     31 C           5.8517    2.9110    9.6479 C.ar    1  UNL1       -0.0611
     32 H           5.9073    3.5222   10.5372 H       1  UNL1        0.0618
     33 C           6.2775    3.4261    8.4363 C.ar    1  UNL1       -0.0535
     34 H           6.6723    4.4316    8.3877 H       1  UNL1        0.0624
@<TRIPOS>BOND
     1    23    22    1
     2    21    20    1
     3    22    20   ar
     4    22    13   ar
     5    20    18   ar
     6     4     3    1
     7     6     5    1
     8     3     5   ar
     9     3     2   ar
    10     5     7   ar
    11     1    13    1
    12     1     2    1
    13     1    24    1
    14    13    14   ar
    15    18    19    1
    16    18    16   ar
    17     2    11   ar
    18     7     8    1
    19     7     9   ar
    20    11     9   ar
    21    11    12    1
    22     9    10    1
    23    26    25    1
    24    16    14   ar
    25    16    17    1
    26    14    15    1
    27    24    25   ar
    28    24    33   ar
    29    25    27   ar
    30    34    33    1
    31    33    31   ar
    32    27    28    1
    33    27    29   ar
    34    31    29   ar
    35    31    32    1
    36    29    30    1
