@<TRIPOS>MOLECULE
1
 13 12 0 0 0
SMALL
GASTEIGER

@<TRIPOS>ATOM
      1 P          -0.2724    3.5123    5.2098 P.3     1  UNL1       -0.1154
      2 C           0.2152    4.1161    6.8885 C.3     1  UNL1       -0.0447
      3 C          -2.0784    3.8445    5.3124 C.3     1  UNL1       -0.0447
      4 C           0.2166    5.0473    4.3090 C.3     1  UNL1       -0.0447
      5 H          -0.2416    3.4855    7.6478 H       1  UNL1        0.0277
      6 H          -0.1032    5.1478    7.0370 H       1  UNL1        0.0277
      7 H           1.2989    4.0548    6.9828 H       1  UNL1        0.0277
      8 H          -2.5039    3.7744    4.3135 H       1  UNL1        0.0277
      9 H          -2.5492    3.0867    5.9335 H       1  UNL1        0.0277
     10 H          -2.2622    4.8348    5.7288 H       1  UNL1        0.0277
     11 H          -0.0335    4.9754    3.2542 H       1  UNL1        0.0277
     12 H          -0.3057    5.9014    4.7403 H       1  UNL1        0.0277
     13 H           1.2891    5.1992    4.4134 H       1  UNL1        0.0277
@<TRIPOS>BOND
     1    11     4    1
     2     4    13    1
     3     4    12    1
     4     4     1    1
     5     8     3    1
     6     1     3    1
     7     1     2    1
     8     3    10    1
     9     3     9    1
    10     2     7    1
    11     2     6    1
    12     2     5    1
