@<TRIPOS>MOLECULE
1
 13 12 0 0 0
SMALL
GASTEIGER

@<TRIPOS>ATOM
      1 P          12.0546    1.9174   14.3750 P.3     1  UNL1       -0.1154
      2 C          11.9780    0.2327   15.1402 C.3     1  UNL1       -0.0447
      3 C          13.8782    2.1392   14.3947 C.3     1  UNL1       -0.0447
      4 C          11.6280    2.9101   15.8607 C.3     1  UNL1       -0.0447
      5 H          12.3447    0.2801   16.1648 H       1  UNL1        0.0277
      6 H          10.9569   -0.1395   15.1395 H       1  UNL1        0.0277
      7 H          12.5991   -0.4550   14.5739 H       1  UNL1        0.0277
      8 H          14.2807    1.8841   15.3748 H       1  UNL1        0.0277
      9 H          14.3354    1.5024   13.6416 H       1  UNL1        0.0277
     10 H          14.1066    3.1759   14.1575 H       1  UNL1        0.0277
     11 H          12.3687    2.7543   16.6444 H       1  UNL1        0.0277
     12 H          11.6023    3.9576   15.5754 H       1  UNL1        0.0277
     13 H          10.6455    2.6248   16.2313 H       1  UNL1        0.0277
@<TRIPOS>BOND
     1     9     3    1
     2    10     3    1
     3     1     3    1
     4     1     2    1
     5     1     4    1
     6     3     8    1
     7     7     2    1
     8     6     2    1
     9     2     5    1
    10    12     4    1
    11     4    13    1
    12     4    11    1
