@<TRIPOS>MOLECULE
1
 13 12 0 0 0
SMALL
GASTEIGER

@<TRIPOS>ATOM
      1 P           8.9124    2.4951   13.2623 P.3     1  UNL1       -0.1154
      2 C           8.4431    1.1412   14.4293 C.3     1  UNL1       -0.0447
      3 C           7.4334    2.3572   12.1679 C.3     1  UNL1       -0.0447
      4 C           8.3746    3.9318   14.2679 C.3     1  UNL1       -0.0447
      5 H           7.3930    1.2236   14.7074 H       1  UNL1        0.0277
      6 H           8.6139    0.1788   13.9499 H       1  UNL1        0.0277
      7 H           9.0574    1.2046   15.3241 H       1  UNL1        0.0277
      8 H           6.5328    2.5032   12.7637 H       1  UNL1        0.0277
      9 H           7.4611    3.1050   11.3807 H       1  UNL1        0.0277
     10 H           7.4023    1.3676   11.7182 H       1  UNL1        0.0277
     11 H           7.3623    3.7733   14.6395 H       1  UNL1        0.0277
     12 H           9.0542    4.0597   15.1056 H       1  UNL1        0.0277
     13 H           8.4116    4.8433   13.6741 H       1  UNL1        0.0277
@<TRIPOS>BOND
     1     9     3    1
     2    10     3    1
     3     3     8    1
     4     3     1    1
     5     1     4    1
     6     1     2    1
     7    13     4    1
     8     6     2    1
     9     4    11    1
    10     4    12    1
    11     2     5    1
    12     2     7    1
