@<TRIPOS>MOLECULE
1
 13 12 0 0 0
SMALL
GASTEIGER

@<TRIPOS>ATOM
      1 P           0.1638    0.4649    6.5619 P.3     1  UNL1       -0.1154
      2 C           0.2907   -1.3699    6.5675 C.3     1  UNL1       -0.0447
      3 C           1.2802    0.8089    7.9973 C.3     1  UNL1       -0.0447
      4 C          -1.4392    0.6341    7.4487 C.3     1  UNL1       -0.0447
      5 H          -0.2977   -1.7689    5.7431 H       1  UNL1        0.0277
      6 H          -0.0745   -1.7744    7.5114 H       1  UNL1        0.0277
      7 H           1.3290   -1.6651    6.4331 H       1  UNL1        0.0277
      8 H           1.1360    1.8288    8.3453 H       1  UNL1        0.0277
      9 H           1.0627    0.1152    8.8097 H       1  UNL1        0.0277
     10 H           2.3168    0.6900    7.6942 H       1  UNL1        0.0277
     11 H          -1.3970    0.1109    8.4042 H       1  UNL1        0.0277
     12 H          -2.2288    0.2162    6.8308 H       1  UNL1        0.0277
     13 H          -1.6557    1.6869    7.6193 H       1  UNL1        0.0277
@<TRIPOS>BOND
     1     5     2    1
     2     7     2    1
     3     1     2    1
     4     1     4    1
     5     1     3    1
     6     2     6    1
     7    12     4    1
     8     4    13    1
     9     4    11    1
    10    10     3    1
    11     3     8    1
    12     3     9    1
