@<TRIPOS>MOLECULE
1
 34 36 0 0 0
SMALL
GASTEIGER

@<TRIPOS>ATOM
      1 P           3.7603    2.8508    7.2576 P.3     1  UNL1       -0.0131
      2 C           5.5005    2.2966    7.4696 C.ar    1  UNL1       -0.0147
      3 C           5.8587    1.7378    8.6943 C.ar    1  UNL1       -0.0535
      4 H           5.1192    1.6497    9.4794 H       1  UNL1        0.0624
      5 C           7.1519    1.3094    8.9306 C.ar    1  UNL1       -0.0611
      6 H           7.4086    0.8871    9.8915 H       1  UNL1        0.0618
      7 C           8.1127    1.4390    7.9418 C.ar    1  UNL1       -0.0617
      8 H           9.1270    1.1163    8.1247 H       1  UNL1        0.0618
      9 C           7.7667    1.9907    6.7195 C.ar    1  UNL1       -0.0611
     10 H           8.5128    2.0968    5.9449 H       1  UNL1        0.0618
     11 C           6.4715    2.4160    6.4803 C.ar    1  UNL1       -0.0535
     12 H           6.2288    2.8591    5.5262 H       1  UNL1        0.0624
     13 C           3.0459    1.2952    6.6055 C.ar    1  UNL1       -0.0147
     14 C           2.0431    1.3303    5.6386 C.ar    1  UNL1       -0.0535
     15 H           1.7482    2.2746    5.2043 H       1  UNL1        0.0624
     16 C           1.4261    0.1633    5.2265 C.ar    1  UNL1       -0.0611
     17 H           0.6500    0.2086    4.4760 H       1  UNL1        0.0618
     18 C           1.7953   -1.0529    5.7774 C.ar    1  UNL1       -0.0617
     19 H           1.3093   -1.9631    5.4576 H       1  UNL1        0.0618
     20 C           2.7897   -1.0959    6.7407 C.ar    1  UNL1       -0.0611
     21 H           3.0826   -2.0407    7.1754 H       1  UNL1        0.0618
     22 C           3.4108    0.0686    7.1546 C.ar    1  UNL1       -0.0535
     23 H           4.1848    0.0208    7.9076 H       1  UNL1        0.0624
     24 C           3.9268    3.8432    5.7303 C.ar    1  UNL1       -0.0147
     25 C           3.9386    5.2272    5.8508 C.ar    1  UNL1       -0.0535
     26 H           3.8084    5.6727    6.8275 H       1  UNL1        0.0624
     27 C           4.1071    6.0309    4.7378 C.ar    1  UNL1       -0.0611
     28 H           4.1155    7.1055    4.8485 H       1  UNL1        0.0618
     29 C           4.2622    5.4569    3.4880 C.ar    1  UNL1       -0.0617
     30 H           4.3868    6.0804    2.6145 H       1  UNL1        0.0618
     31 C           4.2601    4.0769    3.3588 C.ar    1  UNL1       -0.0611
     32 H           4.3883    3.6248    2.3854 H       1  UNL1        0.0618
     33 C           4.1012    3.2711    4.4709 C.ar    1  UNL1       -0.0535
     34 H           4.1133    2.1953    4.3592 H       1  UNL1        0.0624
@<TRIPOS>BOND
     1    32    31    1
     2    30    29    1
     3    31    29   ar
     4    31    33   ar
     5    29    27   ar
     6    34    33    1
     7    33    24   ar
     8    17    16    1
     9    27    28    1
    10    27    25   ar
    11    15    14    1
    12    16    14   ar
    13    16    18   ar
    14    19    18    1
    15    12    11    1
    16    14    13   ar
    17    24    25   ar
    18    24     1    1
    19    18    20   ar
    20    25    26    1
    21    10     9    1
    22    11     9   ar
    23    11     2   ar
    24    13    22   ar
    25    13     1    1
    26     9     7   ar
    27    20    22   ar
    28    20    21    1
    29    22    23    1
    30     1     2    1
    31     2     3   ar
    32     7     8    1
    33     7     5   ar
    34     3     5   ar
    35     3     4    1
    36     5     6    1
