@<TRIPOS>MOLECULE
1
 34 36 0 0 0
SMALL
GASTEIGER

@<TRIPOS>ATOM
      1 P           1.1887    4.9610   11.3419 P.3     1  UNL1       -0.0131
      2 C           0.3591    3.0825    9.4926 C.ar    1  UNL1       -0.0535
      3 H          -0.3758    3.8375    9.2502 H       1  UNL1        0.0624
      4 C           1.2639    3.3313   10.5172 C.ar    1  UNL1       -0.0147
      5 C           2.6300    5.7924   10.5615 C.ar    1  UNL1       -0.0147
      6 C           2.0608    3.1731   14.9259 C.ar    1  UNL1       -0.0611
      7 H           1.7941    2.2560   15.4309 H       1  UNL1        0.0618
      8 C           2.7405    7.1744   10.7001 C.ar    1  UNL1       -0.0535
      9 H           1.9787    7.7211   11.2399 H       1  UNL1        0.0624
     10 C           3.8026    7.8626   10.1425 C.ar    1  UNL1       -0.0611
     11 H           3.8639    8.9353   10.2560 H       1  UNL1        0.0618
     12 C           0.3905    1.8851    8.8010 C.ar    1  UNL1       -0.0611
     13 H          -0.3183    1.7057    8.0059 H       1  UNL1        0.0618
     14 C           1.5904    3.4075   13.6464 C.ar    1  UNL1       -0.0535
     15 H           0.9645    2.6729   13.1613 H       1  UNL1        0.0624
     16 C           2.2158    2.3630   10.8331 C.ar    1  UNL1       -0.0535
     17 H           2.9385    2.5461   11.6163 H       1  UNL1        0.0624
     18 C           2.2379    1.1628   10.1466 C.ar    1  UNL1       -0.0611
     19 H           2.9738    0.4140   10.4029 H       1  UNL1        0.0618
     20 C           3.1937    5.2838   14.8996 C.ar    1  UNL1       -0.0611
     21 H           3.8172    6.0196   15.3862 H       1  UNL1        0.0618
     22 C           3.6111    5.1116    9.8477 C.ar    1  UNL1       -0.0535
     23 H           3.5439    4.0431    9.7105 H       1  UNL1        0.0624
     24 C           1.9225    4.5838   12.9773 C.ar    1  UNL1       -0.0147
     25 C           4.7720    7.1760    9.4302 C.ar    1  UNL1       -0.0617
     26 H           5.5987    7.7098    8.9853 H       1  UNL1        0.0618
     27 C           2.8612    4.1110   15.5575 C.ar    1  UNL1       -0.0617
     28 H           3.2240    3.9283   16.5582 H       1  UNL1        0.0618
     29 C           2.7282    5.5210   13.6188 C.ar    1  UNL1       -0.0535
     30 H           2.9956    6.4391   13.1151 H       1  UNL1        0.0624
     31 C           4.6714    5.8022    9.2866 C.ar    1  UNL1       -0.0611
     32 H           5.4229    5.2618    8.7291 H       1  UNL1        0.0618
     33 C           1.3262    0.9199    9.1314 C.ar    1  UNL1       -0.0617
     34 H           1.3488   -0.0204    8.6000 H       1  UNL1        0.0618
@<TRIPOS>BOND
     1    13    12    1
     2    34    33    1
     3    32    31    1
     4    12    33   ar
     5    12     2   ar
     6    26    25    1
     7    33    18   ar
     8     3     2    1
     9    31    25   ar
    10    31    22   ar
    11    25    10   ar
    12     2     4   ar
    13    23    22    1
    14    22     5   ar
    15    10    11    1
    16    10     8   ar
    17    18    19    1
    18    18    16   ar
    19     4    16   ar
    20     4     1    1
    21     5     8   ar
    22     5     1    1
    23     8     9    1
    24    16    17    1
    25     1    24    1
    26    24    29   ar
    27    24    14   ar
    28    30    29    1
    29    15    14    1
    30    29    20   ar
    31    14     6   ar
    32    20    21    1
    33    20    27   ar
    34     6     7    1
    35     6    27   ar
    36    27    28    1
