@<TRIPOS>MOLECULE
1
 34 36 0 0 0
SMALL
GASTEIGER

@<TRIPOS>ATOM
      1 P           0.5144   -0.7146    4.7781 P.3     1  UNL1       -0.0131
      2 C           1.1231   -2.2207    5.6292 C.ar    1  UNL1       -0.0147
      3 C           1.5100   -3.2916    4.8231 C.ar    1  UNL1       -0.0535
      4 C           2.0469   -4.4352    5.3831 C.ar    1  UNL1       -0.0611
      5 C           2.2175   -4.5205    6.7564 C.ar    1  UNL1       -0.0617
      6 C           1.8520   -3.4557    7.5622 C.ar    1  UNL1       -0.0611
      7 C           1.3117   -2.3090    7.0046 C.ar    1  UNL1       -0.0535
      8 C          -1.1281   -1.2923    4.1957 C.ar    1  UNL1       -0.0147
      9 C          -1.5753   -2.6062    4.2532 C.ar    1  UNL1       -0.0535
     10 C          -2.8410   -2.9310    3.7942 C.ar    1  UNL1       -0.0611
     11 C          -3.6726   -1.9516    3.2813 C.ar    1  UNL1       -0.0617
     12 C          -3.2364   -0.6371    3.2304 C.ar    1  UNL1       -0.0611
     13 C          -1.9730   -0.3113    3.6828 C.ar    1  UNL1       -0.0535
     14 C          -0.0593    0.2941    6.1922 C.ar    1  UNL1       -0.0147
     15 C          -1.0927   -0.1208    7.0284 C.ar    1  UNL1       -0.0535
     16 C          -1.4969    0.6808    8.0794 C.ar    1  UNL1       -0.0611
     17 C          -0.8795    1.9021    8.3035 C.ar    1  UNL1       -0.0617
     18 C           0.1425    2.3251    7.4706 C.ar    1  UNL1       -0.0611
     19 C           0.5482    1.5225    6.4196 C.ar    1  UNL1       -0.0535
     20 H           1.3894   -3.2096    3.7523 H       1  UNL1        0.0624
     21 H           2.3389   -5.2589    4.7484 H       1  UNL1        0.0618
     22 H           2.6402   -5.4116    7.1960 H       1  UNL1        0.0618
     23 H           1.9913   -3.5141    8.6320 H       1  UNL1        0.0618
     24 H           1.0439   -1.4799    7.6444 H       1  UNL1        0.0624
     25 H          -0.9445   -3.3841    4.6580 H       1  UNL1        0.0624
     26 H          -3.1775   -3.9567    3.8409 H       1  UNL1        0.0618
     27 H          -4.6582   -2.2108    2.9240 H       1  UNL1        0.0618
     28 H          -3.8822    0.1324    2.8342 H       1  UNL1        0.0618
     29 H          -1.6220    0.7101    3.6379 H       1  UNL1        0.0624
     30 H          -1.5763   -1.0716    6.8491 H       1  UNL1        0.0624
     31 H          -2.2984    0.3552    8.7265 H       1  UNL1        0.0618
     32 H          -1.2001    2.5259    9.1248 H       1  UNL1        0.0618
     33 H           0.6187    3.2804    7.6385 H       1  UNL1        0.0618
     34 H           1.3401    1.8588    5.7585 H       1  UNL1        0.0624
@<TRIPOS>BOND
     1    28    12    1
     2    27    11    1
     3    12    11   ar
     4    12    13   ar
     5    11    10   ar
     6    29    13    1
     7    13     8   ar
     8    20     3    1
     9    10    26    1
    10    10     9   ar
    11     8     9   ar
    12     8     1    1
    13     9    25    1
    14    21     4    1
    15     1     2    1
    16     1    14    1
    17     3     4   ar
    18     3     2   ar
    19     4     5   ar
    20     2     7   ar
    21    34    19    1
    22    14    19   ar
    23    14    15   ar
    24    19    18   ar
    25     5    22    1
    26     5     6   ar
    27    30    15    1
    28     7     6   ar
    29     7    24    1
    30    15    16   ar
    31    18    33    1
    32    18    17   ar
    33     6    23    1
    34    16    17   ar
    35    16    31    1
    36    17    32    1
