@<TRIPOS>MOLECULE
1
 13 12 0 0 0
SMALL
GASTEIGER

@<TRIPOS>ATOM
      1 P          11.2964    1.1363   -1.6270 P.3     1  UNL1       -0.1154
      2 C          10.6875    2.8734   -1.7883 C.3     1  UNL1       -0.0447
      3 H          11.5284    3.5621   -1.8303 H       1  UNL1        0.0277
      4 H          10.0749    3.1288   -0.9268 H       1  UNL1        0.0277
      5 H          10.0928    2.9796   -2.6954 H       1  UNL1        0.0277
      6 C          11.8542    0.8765   -3.3673 C.3     1  UNL1       -0.0447
      7 H          12.6838    1.5380   -3.6013 H       1  UNL1        0.0277
      8 H          11.0357    1.0694   -4.0604 H       1  UNL1        0.0277
      9 H          12.1895   -0.1508   -3.4827 H       1  UNL1        0.0277
     10 C           9.6727    0.2693   -1.7624 C.3     1  UNL1       -0.0447
     11 H           9.1015    0.3887   -0.8459 H       1  UNL1        0.0277
     12 H           9.8506   -0.7908   -1.9172 H       1  UNL1        0.0277
     13 H           9.0976    0.6703   -2.5970 H       1  UNL1        0.0277
@<TRIPOS>BOND
     1     8     6    1
     2     7     6    1
     3     9     6    1
     4     6     1    1
     5     5     2    1
     6    13    10    1
     7    12    10    1
     8     3     2    1
     9     2     1    1
    10     2     4    1
    11    10     1    1
    12    10    11    1
