@<TRIPOS>MOLECULE
1
 13 12 0 0 0
SMALL
GASTEIGER

@<TRIPOS>ATOM
      1 P           3.0979    2.4398    5.2569 P.3     1  UNL1       -0.1154
      2 C           4.9126    2.3431    5.7010 C.3     1  UNL1       -0.0447
      3 C           2.6802    3.8406    6.3916 C.3     1  UNL1       -0.0447
      4 C           2.5428    1.0380    6.3300 C.3     1  UNL1       -0.0447
      5 H           5.0507    2.2983    6.7805 H       1  UNL1        0.0277
      6 H           5.4306    3.2180    5.3123 H       1  UNL1        0.0277
      7 H           5.3541    1.4568    5.2487 H       1  UNL1        0.0277
      8 H           2.9971    3.6138    7.4095 H       1  UNL1        0.0277
      9 H           3.1862    4.7453    6.0592 H       1  UNL1        0.0277
     10 H           1.6047    4.0064    6.3671 H       1  UNL1        0.0277
     11 H           2.9612    0.1035    5.9603 H       1  UNL1        0.0277
     12 H           2.8742    1.1903    7.3571 H       1  UNL1        0.0277
     13 H           1.4564    0.9772    6.2968 H       1  UNL1        0.0277
@<TRIPOS>BOND
     1     7     2    1
     2     1     2    1
     3     1     4    1
     4     1     3    1
     5     6     2    1
     6     2     5    1
     7    11     4    1
     8     9     3    1
     9    13     4    1
    10     4    12    1
    11    10     3    1
    12     3     8    1
