@<TRIPOS>MOLECULE
1
 13 12 0 0 0
SMALL
GASTEIGER

@<TRIPOS>ATOM
      1 P          12.4165    6.9074    5.4769 P.3     1  UNL1       -0.1154
      2 C          12.0506    6.8225    7.2937 C.3     1  UNL1       -0.0447
      3 C          14.2500    6.8710    5.6130 C.3     1  UNL1       -0.0447
      4 C          12.1916    8.7372    5.3168 C.3     1  UNL1       -0.0447
      5 H          12.1581    5.8003    7.6492 H       1  UNL1        0.0277
      6 H          11.0340    7.1590    7.4914 H       1  UNL1        0.0277
      7 H          12.7395    7.4633    7.8430 H       1  UNL1        0.0277
      8 H          14.5554    5.8720    5.9164 H       1  UNL1        0.0277
      9 H          14.6068    7.6038    6.3369 H       1  UNL1        0.0277
     10 H          14.6797    7.0753    4.6368 H       1  UNL1        0.0277
     11 H          11.1763    9.0078    5.5994 H       1  UNL1        0.0277
     12 H          12.3649    9.0481    4.2895 H       1  UNL1        0.0277
     13 H          12.8909    9.2599    5.9684 H       1  UNL1        0.0277
@<TRIPOS>BOND
     1    12     4    1
     2    10     3    1
     3     4     1    1
     4     4    11    1
     5     4    13    1
     6     1     3    1
     7     1     2    1
     8     3     8    1
     9     3     9    1
    10     2     6    1
    11     2     5    1
    12     2     7    1
