@<TRIPOS>MOLECULE
1
 13 12 0 0 0
SMALL
GASTEIGER

@<TRIPOS>ATOM
      1 P          10.4914    3.9010    5.1371 P.3     1  UNL1       -0.1154
      2 C           9.3790    2.5117    4.6558 C.3     1  UNL1       -0.0447
      3 C          11.5050    2.9697    6.3594 C.3     1  UNL1       -0.0447
      4 C           9.3018    4.7285    6.2875 C.3     1  UNL1       -0.0447
      5 H           8.7635    2.2135    5.5046 H       1  UNL1        0.0277
      6 H           8.7399    2.8039    3.8271 H       1  UNL1        0.0277
      7 H           9.9850    1.6700    4.3342 H       1  UNL1        0.0277
      8 H          10.8784    2.4160    7.0586 H       1  UNL1        0.0277
      9 H          12.1332    2.2783    5.8012 H       1  UNL1        0.0277
     10 H          12.1536    3.6521    6.9036 H       1  UNL1        0.0277
     11 H           9.0086    4.0492    7.0878 H       1  UNL1        0.0277
     12 H           8.4142    5.0193    5.7276 H       1  UNL1        0.0277
     13 H           9.7477    5.6182    6.7210 H       1  UNL1        0.0277
@<TRIPOS>BOND
     1     6     2    1
     2     7     2    1
     3     2     1    1
     4     2     5    1
     5     1     4    1
     6     1     3    1
     7    12     4    1
     8     9     3    1
     9     4    13    1
    10     4    11    1
    11     3    10    1
    12     3     8    1
