@<TRIPOS>MOLECULE
1
 13 12 0 0 0
SMALL
GASTEIGER

@<TRIPOS>ATOM
      1 P           9.9136    6.4115    2.8682 P.3     1  UNL1       -0.1154
      2 C           8.4530    5.3943    2.4172 C.3     1  UNL1       -0.0447
      3 C          10.0191    7.4834    1.3783 C.3     1  UNL1       -0.0447
      4 C           9.0692    7.6451    3.9586 C.3     1  UNL1       -0.0447
      5 H           7.9882    5.0166    3.3270 H       1  UNL1        0.0277
      6 H           8.7791    4.5443    1.8172 H       1  UNL1        0.0277
      7 H           7.7227    5.9865    1.8653 H       1  UNL1        0.0277
      8 H           9.0538    7.9470    1.1731 H       1  UNL1        0.0277
      9 H          10.3288    6.8872    0.5255 H       1  UNL1        0.0277
     10 H          10.7635    8.2594    1.5459 H       1  UNL1        0.0277
     11 H           8.9871    7.2663    4.9748 H       1  UNL1        0.0277
     12 H           9.6559    8.5612    3.9740 H       1  UNL1        0.0277
     13 H           8.0725    7.8700    3.5781 H       1  UNL1        0.0277
@<TRIPOS>BOND
     1     9     3    1
     2     8     3    1
     3     3    10    1
     4     3     1    1
     5     6     2    1
     6     7     2    1
     7     2     1    1
     8     2     5    1
     9     1     4    1
    10    13     4    1
    11     4    12    1
    12     4    11    1
