@<TRIPOS>MOLECULE
1
 34 36 0 0 0
SMALL
GASTEIGER

@<TRIPOS>ATOM
      1 P           2.9529    2.4761    2.9458 P.3     1  UNL1       -0.0131
      2 C           4.3610    3.2240    2.0736 C.ar    1  UNL1       -0.0147
      3 C           4.9623    2.5227    1.0301 C.ar    1  UNL1       -0.0535
      4 C           6.0928    3.0283    0.4187 C.ar    1  UNL1       -0.0611
      5 C           6.6414    4.2243    0.8538 C.ar    1  UNL1       -0.0617
      6 C           6.0611    4.9116    1.9064 C.ar    1  UNL1       -0.0611
      7 C           4.9267    4.4133    2.5210 C.ar    1  UNL1       -0.0535
      8 C           2.1011    3.9665    3.5850 C.ar    1  UNL1       -0.0147
      9 C           1.9137    4.1730    4.9456 C.ar    1  UNL1       -0.0535
     10 C           1.2726    5.3148    5.3960 C.ar    1  UNL1       -0.0611
     11 C           0.8140    6.2567    4.4916 C.ar    1  UNL1       -0.0617
     12 C           1.0008    6.0583    3.1322 C.ar    1  UNL1       -0.0611
     13 C           1.6407    4.9210    2.6792 C.ar    1  UNL1       -0.0535
     14 C           1.7845    2.0381    1.6086 C.ar    1  UNL1       -0.0147
     15 C           1.9073    2.4722    0.2923 C.ar    1  UNL1       -0.0535
     16 C           0.9490    2.1246   -0.6441 C.ar    1  UNL1       -0.0611
     17 C          -0.1417    1.3546   -0.2777 C.ar    1  UNL1       -0.0617
     18 C          -0.2801    0.9357    1.0357 C.ar    1  UNL1       -0.0611
     19 C           0.6771    1.2760    1.9722 C.ar    1  UNL1       -0.0535
     20 H           4.5498    1.5745    0.7144 H       1  UNL1        0.0624
     21 H           6.5553    2.4809   -0.3886 H       1  UNL1        0.0618
     22 H           7.5301    4.6137    0.3804 H       1  UNL1        0.0618
     23 H           6.4983    5.8347    2.2573 H       1  UNL1        0.0618
     24 H           4.4809    4.9441    3.3514 H       1  UNL1        0.0624
     25 H           2.2725    3.4414    5.6559 H       1  UNL1        0.0624
     26 H           1.1322    5.4666    6.4558 H       1  UNL1        0.0618
     27 H           0.3121    7.1453    4.8439 H       1  UNL1        0.0618
     28 H           0.6459    6.7927    2.4243 H       1  UNL1        0.0618
     29 H           1.7880    4.7677    1.6193 H       1  UNL1        0.0624
     30 H           2.7530    3.0746   -0.0076 H       1  UNL1        0.0624
     31 H           1.0570    2.4582   -1.6657 H       1  UNL1        0.0618
     32 H          -0.8833    1.0824   -1.0135 H       1  UNL1        0.0618
     33 H          -1.1320    0.3407    1.3290 H       1  UNL1        0.0618
     34 H           0.5717    0.9495    2.9984 H       1  UNL1        0.0624
@<TRIPOS>BOND
     1    31    16    1
     2    32    17    1
     3    16    17   ar
     4    16    15   ar
     5    21     4    1
     6    17    18   ar
     7    30    15    1
     8    15    14   ar
     9    22     5    1
    10     4     5   ar
    11     4     3   ar
    12    20     3    1
    13     5     6   ar
    14     3     2   ar
    15    18    33    1
    16    18    19   ar
    17    14    19   ar
    18    14     1    1
    19    29    13    1
    20     6    23    1
    21     6     7   ar
    22    19    34    1
    23     2     7   ar
    24     2     1    1
    25    28    12    1
    26     7    24    1
    27    13    12   ar
    28    13     8   ar
    29     1     8    1
    30    12    11   ar
    31     8     9   ar
    32    11    27    1
    33    11    10   ar
    34     9    10   ar
    35     9    25    1
    36    10    26    1
