@<TRIPOS>MOLECULE
1
 27 26 0 0 0
SMALL
GASTEIGER

@<TRIPOS>ATOM
      1 P           6.2873    7.4972    4.3862 P.3     1  UNL1        0.0000
      2 SI          7.6439    8.5616    5.7941 Si      1  UNL1        0.0000
      3 SI          7.3941    7.5285    2.4584 Si      1  UNL1        0.0000
      4 C           9.1929    7.6094    6.4115 C.3     1  UNL1        0.0000
      5 C           6.6562    9.1009    7.3448 C.3     1  UNL1        0.0000
      6 C           8.2543   10.1764    4.9667 C.3     1  UNL1        0.0000
      7 C           7.1204    9.1732    1.5090 C.3     1  UNL1        0.0000
      8 C           9.2861    7.2385    2.5681 C.3     1  UNL1        0.0000
      9 C           6.6773    6.1181    1.3832 C.3     1  UNL1        0.0000
     10 H           8.9303    6.7359    7.0003 H       1  UNL1        0.0000
     11 H           9.8105    7.2724    5.5858 H       1  UNL1        0.0000
     12 H           9.8005    8.2556    7.0380 H       1  UNL1        0.0000
     13 H           6.4845    8.2781    8.0308 H       1  UNL1        0.0000
     14 H           7.2045    9.8660    7.8855 H       1  UNL1        0.0000
     15 H           5.6921    9.5188    7.0715 H       1  UNL1        0.0000
     16 H           8.9483    9.9763    4.1579 H       1  UNL1        0.0000
     17 H           7.4207   10.7360    4.5554 H       1  UNL1        0.0000
     18 H           8.7591   10.8100    5.6891 H       1  UNL1        0.0000
     19 H           6.0681    9.4384    1.4689 H       1  UNL1        0.0000
     20 H           7.6438    9.9951    1.9847 H       1  UNL1        0.0000
     21 H           7.4839    9.0944    0.4890 H       1  UNL1        0.0000
     22 H           9.5156    6.2707    3.0020 H       1  UNL1        0.0000
     23 H           9.7283    7.2732    1.5770 H       1  UNL1        0.0000
     24 H           9.7716    7.9978    3.1714 H       1  UNL1        0.0000
     25 H           6.3514    5.2833    2.0133 H       1  UNL1        0.0000
     26 H           5.8286    6.4555    0.7958 H       1  UNL1        0.0000
     27 H           7.4194    5.7462    0.6835 H       1  UNL1        0.0000
@<TRIPOS>BOND
     1    21     7    1
     2    27     9    1
     3    26     9    1
     4     9    25    1
     5     9     3    1
     6    19     7    1
     7     7    20    1
     8     7     3    1
     9    23     8    1
    10     3     8    1
    11     3     1    1
    12     8    22    1
    13     8    24    1
    14    16     6    1
    15     1     2    1
    16    17     6    1
    17     6    18    1
    18     6     2    1
    19    11     4    1
    20     2     4    1
    21     2     5    1
    22     4    10    1
    23     4    12    1
    24    15     5    1
    25     5    14    1
    26     5    13    1
