@<TRIPOS>MOLECULE
1
 27 26 0 0 0
SMALL
GASTEIGER

@<TRIPOS>ATOM
      1 P           5.5817    3.2642    3.5581 P.3     1  UNL1        0.0000
      2 SI          7.7576    2.9895    3.9236 Si      1  UNL1        0.0000
      3 SI          5.2122    2.1224    1.6837 Si      1  UNL1        0.0000
      4 C           8.3113    4.4137    5.0744 C.3     1  UNL1        0.0000
      5 C           8.8877    3.0543    2.3762 C.3     1  UNL1        0.0000
      6 C           8.1244    1.3394    4.8316 C.3     1  UNL1        0.0000
      7 C           3.3335    1.7994    1.4913 C.3     1  UNL1        0.0000
      8 C           6.0336    0.4000    1.8371 C.3     1  UNL1        0.0000
      9 C           5.8223    2.9101    0.0423 C.3     1  UNL1        0.0000
     10 H           9.3581    4.6557    4.9184 H       1  UNL1        0.0000
     11 H           7.7186    5.3146    4.8816 H       1  UNL1        0.0000
     12 H           8.2000    4.1478    6.1213 H       1  UNL1        0.0000
     13 H           8.8119    4.0101    1.8681 H       1  UNL1        0.0000
     14 H           9.9248    2.9106    2.6638 H       1  UNL1        0.0000
     15 H           8.6335    2.2769    1.6640 H       1  UNL1        0.0000
     16 H           7.4548    1.1916    5.6736 H       1  UNL1        0.0000
     17 H           8.0045    0.4895    4.1689 H       1  UNL1        0.0000
     18 H           9.1427    1.3250    5.2082 H       1  UNL1        0.0000
     19 H           2.7967    2.6791    1.1519 H       1  UNL1        0.0000
     20 H           3.1661    1.0144    0.7605 H       1  UNL1        0.0000
     21 H           2.8916    1.4755    2.4287 H       1  UNL1        0.0000
     22 H           5.7739   -0.0666    2.7815 H       1  UNL1        0.0000
     23 H           5.7028   -0.2553    1.0375 H       1  UNL1        0.0000
     24 H           7.1149    0.4649    1.7876 H       1  UNL1        0.0000
     25 H           5.2988    3.8326   -0.1892 H       1  UNL1        0.0000
     26 H           6.8825    3.1366    0.0771 H       1  UNL1        0.0000
     27 H           5.6565    2.2240   -0.7830 H       1  UNL1        0.0000
@<TRIPOS>BOND
     1    27     9    1
     2    25     9    1
     3     9    26    1
     4     9     3    1
     5    20     7    1
     6    23     8    1
     7    19     7    1
     8     7     3    1
     9     7    21    1
    10    15     5    1
    11     3     8    1
    12     3     1    1
    13    24     8    1
    14     8    22    1
    15    13     5    1
    16     5    14    1
    17     5     2    1
    18     1     2    1
    19     2     6    1
    20     2     4    1
    21    17     6    1
    22     6    18    1
    23     6    16    1
    24    11     4    1
    25    10     4    1
    26     4    12    1
