@<TRIPOS>MOLECULE
1
 27 28 0 0 0
SMALL
GASTEIGER

@<TRIPOS>ATOM
      1 P           1.4005    1.7196    3.5299 P.3     1  UNL1       -0.0470
      2 C           1.0505    2.5902    5.1033 C.3     1  UNL1       -0.0364
      3 C           1.0769    2.9486    2.2210 C.ar    1  UNL1       -0.0192
      4 C           1.6191    2.6358    0.9752 C.ar    1  UNL1       -0.0538
      5 C           1.4364    3.4903   -0.0953 C.ar    1  UNL1       -0.0612
      6 C           0.7170    4.6642    0.0732 C.ar    1  UNL1       -0.0617
      7 C           0.1822    4.9793    1.3106 C.ar    1  UNL1       -0.0612
      8 C           0.3577    4.1250    2.3865 C.ar    1  UNL1       -0.0538
      9 C          -0.0120    0.5859    3.3215 C.ar    1  UNL1       -0.0192
     10 C           0.2882   -0.7403    3.0276 C.ar    1  UNL1       -0.0538
     11 C          -0.7365   -1.6525    2.8475 C.ar    1  UNL1       -0.0612
     12 C          -2.0568   -1.2435    2.9546 C.ar    1  UNL1       -0.0617
     13 C          -2.3558    0.0815    3.2290 C.ar    1  UNL1       -0.0612
     14 C          -1.3365    1.0001    3.4077 C.ar    1  UNL1       -0.0538
     15 H           1.2905    1.9000    5.9141 H       1  UNL1        0.0283
     16 H           1.6952    3.4683    5.1699 H       1  UNL1        0.0283
     17 H           0.0036    2.8826    5.1759 H       1  UNL1        0.0283
     18 H           2.1985    1.7178    0.8751 H       1  UNL1        0.0624
     19 H           1.8604    3.2497   -1.0585 H       1  UNL1        0.0618
     20 H           0.5807    5.3378   -0.7596 H       1  UNL1        0.0618
     21 H          -0.3703    5.8981    1.4420 H       1  UNL1        0.0618
     22 H          -0.0543    4.3882    3.3492 H       1  UNL1        0.0624
     23 H           1.3374   -1.0209    2.9554 H       1  UNL1        0.0624
     24 H          -0.5103   -2.6836    2.6225 H       1  UNL1        0.0618
     25 H          -2.8562   -1.9566    2.8193 H       1  UNL1        0.0618
     26 H          -3.3852    0.3997    3.3023 H       1  UNL1        0.0618
     27 H          -1.5719    2.0362    3.6059 H       1  UNL1        0.0624
@<TRIPOS>BOND
     1    19     5    1
     2    20     6    1
     3     5     6   ar
     4     5     4   ar
     5     6     7   ar
     6    18     4    1
     7     4     3   ar
     8     7    21    1
     9     7     8   ar
    10     3     8   ar
    11     3     1    1
    12     8    22    1
    13    24    11    1
    14    25    12    1
    15    11    12   ar
    16    11    10   ar
    17    12    13   ar
    18    23    10    1
    19    10     9   ar
    20    13    26    1
    21    13    14   ar
    22     9    14   ar
    23     9     1    1
    24    14    27    1
    25     1     2    1
    26     2    16    1
    27     2    17    1
    28     2    15    1
