@<TRIPOS>MOLECULE
1
 56 58 0 0 0
SMALL
GASTEIGER

@<TRIPOS>ATOM
      1 P          11.5028    5.5437    6.7137 P.3     1  UNL1        0.0000
      2 O          12.2589    6.9561    6.4808 O.3     1  UNL1        0.0000
      3 SI         12.8808    9.5774    5.0612 Si      1  UNL1        0.0000
      4 C          12.3420    7.9734    7.4087 C.ar    1  UNL1        0.0000
      5 C          12.6252    9.2488    6.9184 C.ar    1  UNL1        0.0000
      6 C          12.7654   10.2712    7.8524 C.ar    1  UNL1        0.0000
      7 H          12.9839   11.2677    7.5021 H       1  UNL1        0.0000
      8 C          12.6352   10.0413    9.2106 C.ar    1  UNL1        0.0000
      9 H          12.7583   10.8547    9.9102 H       1  UNL1        0.0000
     10 C          12.3426    8.7674    9.6675 C.ar    1  UNL1        0.0000
     11 H          12.2327    8.5726   10.7228 H       1  UNL1        0.0000
     12 C          12.1842    7.7303    8.7645 C.ar    1  UNL1        0.0000
     13 H          11.9416    6.7321    9.1059 H       1  UNL1        0.0000
     14 C          11.6677    8.6349    3.9295 C.3     1  UNL1        0.0000
     15 H          10.6546    9.0020    4.0648 H       1  UNL1        0.0000
     16 H          11.6696    7.5675    4.1196 H       1  UNL1        0.0000
     17 H          11.9267    8.7861    2.8859 H       1  UNL1        0.0000
     18 C          12.5348   11.4361    4.7681 C.3     1  UNL1        0.0000
     19 H          12.4653   11.6477    3.7060 H       1  UNL1        0.0000
     20 H          13.3170   12.0692    5.1734 H       1  UNL1        0.0000
     21 H          11.5971   11.7425    5.2219 H       1  UNL1        0.0000
     22 C          14.7207    9.1825    4.6218 C.3     1  UNL1        0.0000
     23 C          14.9658    7.6739    4.6428 C.3     1  UNL1        0.0000
     24 H          16.0039    7.4531    4.3938 H       1  UNL1        0.0000
     25 H          14.3264    7.1655    3.9251 H       1  UNL1        0.0000
     26 H          14.7589    7.2663    5.6286 H       1  UNL1        0.0000
     27 C          15.0572    9.7134    3.2274 C.3     1  UNL1        0.0000
     28 H          16.0949    9.4924    2.9784 H       1  UNL1        0.0000
     29 H          14.9200   10.7906    3.1781 H       1  UNL1        0.0000
     30 H          14.4244    9.2513    2.4734 H       1  UNL1        0.0000
     31 C          15.6575    9.8425    5.6364 C.3     1  UNL1        0.0000
     32 H          15.4550    9.4823    6.6429 H       1  UNL1        0.0000
     33 H          15.5383   10.9235    5.6317 H       1  UNL1        0.0000
     34 H          16.6962    9.6172    5.3956 H       1  UNL1        0.0000
     35 C          11.8020    4.9170    5.0276 C.ar    1  UNL1        0.0000
     36 C          10.7509    4.7463    4.1389 C.ar    1  UNL1        0.0000
     37 H           9.7403    4.9191    4.4782 H       1  UNL1        0.0000
     38 C          10.9970    4.3272    2.8433 C.ar    1  UNL1        0.0000
     39 H          10.1753    4.1890    2.1559 H       1  UNL1        0.0000
     40 C          12.2956    4.0812    2.4306 C.ar    1  UNL1        0.0000
     41 H          12.4889    3.7552    1.4191 H       1  UNL1        0.0000
     42 C          13.3472    4.2434    3.3185 C.ar    1  UNL1        0.0000
     43 H          14.3598    4.0433    3.0002 H       1  UNL1        0.0000
     44 C          13.1040    4.6561    4.6156 C.ar    1  UNL1        0.0000
     45 H          13.9209    4.7733    5.3122 H       1  UNL1        0.0000
     46 C          12.6814    4.5284    7.6694 C.ar    1  UNL1        0.0000
     47 C          12.3185    3.2274    8.0013 C.ar    1  UNL1        0.0000
     48 H          11.3403    2.8613    7.7251 H       1  UNL1        0.0000
     49 C          13.2019    2.4212    8.6944 C.ar    1  UNL1        0.0000
     50 H          12.9144    1.4143    8.9571 H       1  UNL1        0.0000
     51 C          14.4489    2.9046    9.0573 C.ar    1  UNL1        0.0000
     52 H          15.1355    2.2748    9.6038 H       1  UNL1        0.0000
     53 C          14.8139    4.1979    8.7243 C.ar    1  UNL1        0.0000
     54 H          15.7846    4.5789    9.0074 H       1  UNL1        0.0000
     55 C          13.9343    5.0113    8.0323 C.ar    1  UNL1        0.0000
     56 H          14.2230    6.0232    7.7839 H       1  UNL1        0.0000
@<TRIPOS>BOND
     1    41    40    1
     2    39    38    1
     3    40    38   ar
     4    40    42   ar
     5    30    27    1
     6    38    36   ar
     7    17    14    1
     8    28    27    1
     9    43    42    1
    10    29    27    1
    11    27    22    1
    12    42    44   ar
    13    19    18    1
    14    25    23    1
    15    14    15    1
    16    14    16    1
    17    14     3    1
    18    36    37    1
    19    36    35   ar
    20    24    23    1
    21    44    35   ar
    22    44    45    1
    23    22    23    1
    24    22     3    1
    25    22    31    1
    26    23    26    1
    27    18     3    1
    28    18    20    1
    29    18    21    1
    30    35     1    1
    31     3     5    1
    32    34    31    1
    33    33    31    1
    34    31    32    1
    35     2     1    1
    36     2     4    1
    37     1    46    1
    38     5     4   ar
    39     5     6   ar
    40     4    12   ar
    41     7     6    1
    42    46    47   ar
    43    46    55   ar
    44    48    47    1
    45    56    55    1
    46     6     8   ar
    47    47    49   ar
    48    55    53   ar
    49    49    50    1
    50    49    51   ar
    51    53    54    1
    52    53    51   ar
    53    12    13    1
    54    12    10   ar
    55    51    52    1
    56     8    10   ar
    57     8     9    1
    58    10    11    1
