@<TRIPOS>MOLECULE
1
 13 12 0 0 0
SMALL
GASTEIGER

@<TRIPOS>ATOM
      1 P           2.6899    6.8880    6.3720 P.3     1  UNL1       -0.1154
      2 C           3.8456    6.4565    7.7369 C.3     1  UNL1       -0.0447
      3 C           1.2519    5.8527    6.8907 C.3     1  UNL1       -0.0447
      4 C           2.1490    8.5196    7.0514 C.3     1  UNL1       -0.0447
      5 H           3.3326    6.5046    8.6972 H       1  UNL1        0.0277
      6 H           4.6775    7.1567    7.7351 H       1  UNL1        0.0277
      7 H           4.2425    5.4565    7.5823 H       1  UNL1        0.0277
      8 H           0.9672    6.0565    7.9222 H       1  UNL1        0.0277
      9 H           1.5352    4.8056    6.7932 H       1  UNL1        0.0277
     10 H           0.4061    6.0419    6.2320 H       1  UNL1        0.0277
     11 H           1.9035    8.4281    8.1089 H       1  UNL1        0.0277
     12 H           1.2788    8.8877    6.5119 H       1  UNL1        0.0277
     13 H           2.9661    9.2302    6.9360 H       1  UNL1        0.0277
@<TRIPOS>BOND
     1    10     3    1
     2     1     3    1
     3     1     4    1
     4     1     2    1
     5    12     4    1
     6     9     3    1
     7     3     8    1
     8    13     4    1
     9     4    11    1
    10     7     2    1
    11     6     2    1
    12     2     5    1
