@<TRIPOS>MOLECULE
1
 13 12 0 0 0
SMALL
GASTEIGER

@<TRIPOS>ATOM
      1 P           2.8568    4.8000    2.5591 P.3     1  UNL1       -0.1154
      2 C           3.7309    3.2003    2.7979 C.3     1  UNL1       -0.0447
      3 C           1.1251    4.1570    2.5794 C.3     1  UNL1       -0.0447
      4 C           3.1208    4.9479    0.7395 C.3     1  UNL1       -0.0447
      5 H           3.3636    2.4513    2.0969 H       1  UNL1        0.0277
      6 H           3.5796    2.8532    3.8172 H       1  UNL1        0.0277
      7 H           4.7957    3.3526    2.6418 H       1  UNL1        0.0277
      8 H           1.0083    3.3157    1.8974 H       1  UNL1        0.0277
      9 H           0.4287    4.9472    2.3058 H       1  UNL1        0.0277
     10 H           0.8968    3.8360    3.5955 H       1  UNL1        0.0277
     11 H           2.8327    4.0225    0.2418 H       1  UNL1        0.0277
     12 H           4.1759    5.1426    0.5595 H       1  UNL1        0.0277
     13 H           2.5419    5.7724    0.3328 H       1  UNL1        0.0277
@<TRIPOS>BOND
     1    11     4    1
     2    13     4    1
     3    12     4    1
     4     4     1    1
     5     8     3    1
     6     5     2    1
     7     9     3    1
     8     1     3    1
     9     1     2    1
    10     3    10    1
    11     7     2    1
    12     2     6    1
