@<TRIPOS>MOLECULE
1
 13 12 0 0 0
SMALL
GASTEIGER

@<TRIPOS>ATOM
      1 P           1.4084    7.8281    3.3346 P.3     1  UNL1       -0.1154
      2 C           1.9040    9.5974    3.5159 C.3     1  UNL1       -0.0447
      3 C           1.0570    7.9000    1.5221 C.3     1  UNL1       -0.0447
      4 C          -0.3389    7.9383    3.9308 C.3     1  UNL1       -0.0447
      5 H           1.1127   10.2605    3.1675 H       1  UNL1        0.0277
      6 H           2.7988    9.7646    2.9170 H       1  UNL1        0.0277
      7 H           2.1398    9.8237    4.5522 H       1  UNL1        0.0277
      8 H           0.4236    8.7549    1.2863 H       1  UNL1        0.0277
      9 H           0.5618    6.9888    1.1934 H       1  UNL1        0.0277
     10 H           2.0019    7.9959    0.9891 H       1  UNL1        0.0277
     11 H          -0.8773    8.7342    3.4177 H       1  UNL1        0.0277
     12 H          -0.3518    8.1274    5.0022 H       1  UNL1        0.0277
     13 H          -0.8398    6.9892    3.7453 H       1  UNL1        0.0277
@<TRIPOS>BOND
     1    10     3    1
     2     9     3    1
     3     8     3    1
     4     3     1    1
     5     6     2    1
     6     5     2    1
     7     1     2    1
     8     1     4    1
     9    11     4    1
    10     2     7    1
    11    13     4    1
    12     4    12    1
