@<TRIPOS>MOLECULE
1
 34 36 0 0 0
SMALL
GASTEIGER

@<TRIPOS>ATOM
      1 P           2.1168    2.1255    2.1968 P.3     1  UNL1       -0.0131
      2 C           0.7515    0.4064    3.8582 C.ar    1  UNL1       -0.0535
      3 C           0.3830   -0.8164    4.3843 C.ar    1  UNL1       -0.0611
      4 C           0.8586   -1.9884    3.8148 C.ar    1  UNL1       -0.0617
      5 C           1.7048   -1.9317    2.7205 C.ar    1  UNL1       -0.0611
      6 C           2.0759   -0.7085    2.1881 C.ar    1  UNL1       -0.0535
      7 C           1.5896    0.4688    2.7456 C.ar    1  UNL1       -0.0147
      8 C           3.7575    2.3670   -0.0447 C.ar    1  UNL1       -0.0535
      9 C           4.1158    2.1805   -1.3684 C.ar    1  UNL1       -0.0611
     10 C           3.2906    1.4572   -2.2121 C.ar    1  UNL1       -0.0617
     11 C           2.1033    0.9270   -1.7309 C.ar    1  UNL1       -0.0611
     12 C           1.7419    1.1126   -0.4099 C.ar    1  UNL1       -0.0535
     13 C           2.5750    1.8286    0.4464 C.ar    1  UNL1       -0.0147
     14 C          -0.6748    2.2155    1.6683 C.ar    1  UNL1       -0.0535
     15 C          -1.8563    2.8872    1.4094 C.ar    1  UNL1       -0.0611
     16 C          -1.8836    4.2713    1.3895 C.ar    1  UNL1       -0.0617
     17 C          -0.7236    4.9871    1.6374 C.ar    1  UNL1       -0.0611
     18 C           0.4589    4.3204    1.8990 C.ar    1  UNL1       -0.0535
     19 C           0.4942    2.9291    1.9151 C.ar    1  UNL1       -0.0147
     20 H           0.3989    1.3287    4.3006 H       1  UNL1        0.0624
     21 H          -0.2702   -0.8590    5.2436 H       1  UNL1        0.0618
     22 H           0.5741   -2.9449    4.2282 H       1  UNL1        0.0618
     23 H           2.0820   -2.8437    2.2805 H       1  UNL1        0.0618
     24 H           2.7385   -0.6713    1.3333 H       1  UNL1        0.0624
     25 H           4.3889    2.9387    0.6214 H       1  UNL1        0.0624
     26 H           5.0377    2.6017   -1.7420 H       1  UNL1        0.0618
     27 H           3.5682    1.3088   -3.2453 H       1  UNL1        0.0618
     28 H           1.4557    0.3675   -2.3903 H       1  UNL1        0.0618
     29 H           0.8147    0.7002   -0.0402 H       1  UNL1        0.0624
     30 H          -0.6732    1.1350    1.6993 H       1  UNL1        0.0624
     31 H          -2.7609    2.3256    1.2256 H       1  UNL1        0.0618
     32 H          -2.8090    4.7905    1.1887 H       1  UNL1        0.0618
     33 H          -0.7419    6.0667    1.6318 H       1  UNL1        0.0618
     34 H           1.3686    4.8679    2.1151 H       1  UNL1        0.0624
@<TRIPOS>BOND
     1    27    10    1
     2    28    11    1
     3    10    11   ar
     4    10     9   ar
     5    26     9    1
     6    11    12   ar
     7     9     8   ar
     8    12    29    1
     9    12    13   ar
    10     8    13   ar
    11     8    25    1
    12    13     1    1
    13    32    16    1
    14    31    15    1
    15    24     6    1
    16    16    15   ar
    17    16    17   ar
    18    15    14   ar
    19    33    17    1
    20    17    18   ar
    21    14    30    1
    22    14    19   ar
    23    18    19   ar
    24    18    34    1
    25    19     1    1
    26     6     5   ar
    27     6     7   ar
    28     1     7    1
    29    23     5    1
    30     5     4   ar
    31     7     2   ar
    32     4    22    1
    33     4     3   ar
    34     2    20    1
    35     2     3   ar
    36     3    21    1
