@<TRIPOS>MOLECULE
1
 13 12 0 0 0
SMALL
GASTEIGER

@<TRIPOS>ATOM
      1 P           0.5031    2.0242    3.3191 P.3     1  UNL1       -0.1154
      2 C          -0.2730    2.6691    1.7775 C.3     1  UNL1       -0.0447
      3 C          -0.4888    0.4907    3.5542 C.3     1  UNL1       -0.0447
      4 C          -0.3498    3.1043    4.5401 C.3     1  UNL1       -0.0447
      5 H          -1.3592    2.6157    1.8313 H       1  UNL1        0.0277
      6 H           0.0352    3.7037    1.6463 H       1  UNL1        0.0277
      7 H           0.0769    2.0888    0.9275 H       1  UNL1        0.0277
      8 H          -1.5545    0.7146    3.5670 H       1  UNL1        0.0277
      9 H          -0.2788   -0.2069    2.7482 H       1  UNL1        0.0277
     10 H          -0.2041    0.0286    4.4966 H       1  UNL1        0.0277
     11 H          -1.4208    3.1208    4.3447 H       1  UNL1        0.0277
     12 H          -0.1716    2.7247    5.5429 H       1  UNL1        0.0277
     13 H           0.0506    4.1122    4.4686 H       1  UNL1        0.0277
@<TRIPOS>BOND
     1     7     2    1
     2     6     2    1
     3     2     5    1
     4     2     1    1
     5     9     3    1
     6     1     3    1
     7     1     4    1
     8     3     8    1
     9     3    10    1
    10    11     4    1
    11    13     4    1
    12     4    12    1
