@<TRIPOS>MOLECULE
1
 13 12 0 0 0
SMALL
GASTEIGER

@<TRIPOS>ATOM
      1 P           5.6853   10.9558   12.5565 P.3     1  UNL1       -0.1154
      2 C           6.8316    9.5259   12.3980 C.3     1  UNL1       -0.0447
      3 H           6.6907    8.8402   13.2302 H       1  UNL1        0.0277
      4 H           7.8651    9.8692   12.3941 H       1  UNL1        0.0277
      5 H           6.6197    9.0056   11.4679 H       1  UNL1        0.0277
      6 C           6.3769   12.0102   11.2220 C.3     1  UNL1       -0.0447
      7 H           6.1717   11.5346   10.2663 H       1  UNL1        0.0277
      8 H           7.4516   12.1265   11.3528 H       1  UNL1        0.0277
      9 H           5.8964   12.9839   11.2267 H       1  UNL1        0.0277
     10 C           6.4435   11.7441   14.0384 C.3     1  UNL1       -0.0447
     11 H           6.3345   11.0805   14.8928 H       1  UNL1        0.0277
     12 H           5.9499   12.6848   14.2656 H       1  UNL1        0.0277
     13 H           7.5025   11.9301   13.8647 H       1  UNL1        0.0277
@<TRIPOS>BOND
     1     7     6    1
     2     6     9    1
     3     6     8    1
     4     6     1    1
     5     5     2    1
     6     4     2    1
     7     2     1    1
     8     2     3    1
     9     1    10    1
    10    13    10    1
    11    10    12    1
    12    10    11    1
