@<TRIPOS>MOLECULE
1
 34 36 0 0 0
SMALL
GASTEIGER

@<TRIPOS>ATOM
      1 P           2.0725    3.4356    5.1117 P.3     1  UNL1       -0.0131
      2 C           3.0534    3.8923    6.5865 C.ar    1  UNL1       -0.0147
      3 C           4.3861    3.4833    6.5793 C.ar    1  UNL1       -0.0535
      4 H           4.7676    2.9660    5.7074 H       1  UNL1        0.0624
      5 C           5.2028    3.7273    7.6658 C.ar    1  UNL1       -0.0611
      6 H           6.2317    3.3961    7.6554 H       1  UNL1        0.0618
      7 C           4.6981    4.3933    8.7718 C.ar    1  UNL1       -0.0617
      8 H           5.3305    4.5780    9.6279 H       1  UNL1        0.0618
      9 C           3.3860    4.8318    8.7711 C.ar    1  UNL1       -0.0611
     10 H           2.9954    5.3669    9.6244 H       1  UNL1        0.0618
     11 C           2.5664    4.5918    7.6814 C.ar    1  UNL1       -0.0535
     12 H           1.5507    4.9584    7.6864 H       1  UNL1        0.0624
     13 C           1.9183    1.6210    5.4064 C.ar    1  UNL1       -0.0147
     14 C           0.9814    0.9468    4.6272 C.ar    1  UNL1       -0.0535
     15 H           0.4267    1.4935    3.8773 H       1  UNL1        0.0624
     16 C           0.7617   -0.4063    4.7924 C.ar    1  UNL1       -0.0611
     17 H           0.0323   -0.9113    4.1761 H       1  UNL1        0.0618
     18 C           1.4757   -1.1134    5.7462 C.ar    1  UNL1       -0.0617
     19 H           1.3096   -2.1726    5.8765 H       1  UNL1        0.0618
     20 C           2.3999   -0.4515    6.5336 C.ar    1  UNL1       -0.0611
     21 H           2.9567   -0.9924    7.2854 H       1  UNL1        0.0618
     22 C           2.6181    0.9067    6.3705 C.ar    1  UNL1       -0.0535
     23 H           3.3402    1.3998    7.0041 H       1  UNL1        0.0624
     24 C          -0.4543    4.4801    4.7055 C.ar    1  UNL1       -0.0535
     25 H          -0.0210    4.7790    3.7494 H       1  UNL1        0.0624
     26 C          -1.7820    4.7406    4.9928 C.ar    1  UNL1       -0.0611
     27 H          -2.4009    5.2637    4.2776 H       1  UNL1        0.0618
     28 C          -2.3162    4.3236    6.2003 C.ar    1  UNL1       -0.0617
     29 H          -3.3515    4.5261    6.4331 H       1  UNL1        0.0618
     30 C          -1.5263    3.6301    7.1048 C.ar    1  UNL1       -0.0611
     31 H          -1.9503    3.2884    8.0381 H       1  UNL1        0.0618
     32 C          -0.2010    3.3644    6.8140 C.ar    1  UNL1       -0.0535
     33 H           0.4059    2.8015    7.5101 H       1  UNL1        0.0624
     34 C           0.3518    3.8102    5.6165 C.ar    1  UNL1       -0.0147
@<TRIPOS>BOND
     1    25    24    1
     2    15    14    1
     3    17    16    1
     4    27    26    1
     5    14    16   ar
     6    14    13   ar
     7    24    26   ar
     8    24    34   ar
     9    16    18   ar
    10    26    28   ar
    11     1    13    1
    12     1    34    1
    13     1     2    1
    14    13    22   ar
    15    34    32   ar
    16     4     3    1
    17    18    19    1
    18    18    20   ar
    19    28    29    1
    20    28    30   ar
    21    22    20   ar
    22    22    23    1
    23    20    21    1
    24     3     2   ar
    25     3     5   ar
    26     2    11   ar
    27    32    30   ar
    28    32    33    1
    29    30    31    1
    30     6     5    1
    31     5     7   ar
    32    11    12    1
    33    11     9   ar
    34     9     7   ar
    35     9    10    1
    36     7     8    1
