@<TRIPOS>MOLECULE
1
 13 12 0 0 0
SMALL
GASTEIGER

@<TRIPOS>ATOM
      1 P          12.0026    0.6205    5.2454 P.3     1  UNL1       -0.1154
      2 C          11.5781   -1.0149    5.9671 C.3     1  UNL1       -0.0447
      3 H          10.8691   -0.8859    6.7844 H       1  UNL1        0.0277
      4 H          12.4800   -1.4952    6.3490 H       1  UNL1        0.0277
      5 H          11.1408   -1.6423    5.1923 H       1  UNL1        0.0277
      6 C          13.3405    0.0648    4.1250 C.3     1  UNL1       -0.0447
      7 H          12.9071   -0.4635    3.2791 H       1  UNL1        0.0277
      8 H          14.0271   -0.5945    4.6582 H       1  UNL1        0.0277
      9 H          13.8787    0.9357    3.7556 H       1  UNL1        0.0277
     10 C          13.1003    1.1693    6.6188 C.3     1  UNL1       -0.0447
     11 H          13.6340    2.0715    6.3240 H       1  UNL1        0.0277
     12 H          13.8271    0.3806    6.8190 H       1  UNL1        0.0277
     13 H          12.5237    1.3512    7.5247 H       1  UNL1        0.0277
@<TRIPOS>BOND
     1     7     6    1
     2     9     6    1
     3     6     8    1
     4     6     1    1
     5     5     2    1
     6     1     2    1
     7     1    10    1
     8     2     4    1
     9     2     3    1
    10    11    10    1
    11    10    12    1
    12    10    13    1
