@<TRIPOS>MOLECULE
1
 13 12 0 0 0
SMALL
GASTEIGER

@<TRIPOS>ATOM
      1 P           9.1614    2.3292    5.9584 P.3     1  UNL1       -0.1154
      2 C           9.5519    1.8613    7.6952 C.3     1  UNL1       -0.0447
      3 H           8.7398    2.1813    8.3506 H       1  UNL1        0.0277
      4 H          10.4794    2.3268    8.0211 H       1  UNL1        0.0277
      5 H           9.6563    0.7771    7.7504 H       1  UNL1        0.0277
      6 C           8.7853    4.1154    6.2260 C.3     1  UNL1       -0.0447
      7 H           9.3089    4.4779    7.1102 H       1  UNL1        0.0277
      8 H           7.7133    4.2551    6.3608 H       1  UNL1        0.0277
      9 H           9.1092    4.6966    5.3632 H       1  UNL1        0.0277
     10 C           7.4478    1.6762    5.9920 C.3     1  UNL1       -0.0447
     11 H           6.9781    1.7859    5.0164 H       1  UNL1        0.0277
     12 H           6.8695    2.2116    6.7470 H       1  UNL1        0.0277
     13 H           7.4762    0.6199    6.2538 H       1  UNL1        0.0277
@<TRIPOS>BOND
     1    11    10    1
     2     9     6    1
     3     1    10    1
     4     1     6    1
     5     1     2    1
     6    10    13    1
     7    10    12    1
     8     6     8    1
     9     6     7    1
    10     2     5    1
    11     2     4    1
    12     2     3    1
