@<TRIPOS>MOLECULE
1
 13 12 0 0 0
SMALL
GASTEIGER

@<TRIPOS>ATOM
      1 P          -4.5283    1.7953   -0.6585 P.3     1  UNL1       -0.1154
      2 C          -3.5878    2.0316    0.9060 C.3     1  UNL1       -0.0447
      3 C          -4.4603    3.5227   -1.2735 C.3     1  UNL1       -0.0447
      4 C          -6.2327    1.6776   -0.0049 C.3     1  UNL1       -0.0447
      5 H          -3.9535    2.8978    1.4573 H       1  UNL1        0.0277
      6 H          -3.6850    1.1412    1.5243 H       1  UNL1        0.0277
      7 H          -2.5386    2.1721    0.6510 H       1  UNL1        0.0277
      8 H          -5.0801    3.6228   -2.1614 H       1  UNL1        0.0277
      9 H          -3.4269    3.7364   -1.5419 H       1  UNL1        0.0277
     10 H          -4.7965    4.2218   -0.5080 H       1  UNL1        0.0277
     11 H          -6.3437    0.7102    0.4830 H       1  UNL1        0.0277
     12 H          -6.9350    1.7147   -0.8345 H       1  UNL1        0.0277
     13 H          -6.4373    2.4830    0.7008 H       1  UNL1        0.0277
@<TRIPOS>BOND
     1     8     3    1
     2     9     3    1
     3     3     1    1
     4     3    10    1
     5    12     4    1
     6     1     4    1
     7     1     2    1
     8     4    11    1
     9     4    13    1
    10     7     2    1
    11     2     5    1
    12     2     6    1
