@<TRIPOS>MOLECULE
1
 13 12 0 0 0
SMALL
GASTEIGER

@<TRIPOS>ATOM
      1 P          -2.9982   -1.4610   -0.4215 P.3     1  UNL1       -0.1154
      2 C          -4.2294   -1.9489    0.8481 C.3     1  UNL1       -0.0447
      3 C          -1.5432   -1.1529    0.6630 C.3     1  UNL1       -0.0447
      4 C          -2.6038   -3.1191   -1.0953 C.3     1  UNL1       -0.0447
      5 H          -5.1247   -2.3007    0.3379 H       1  UNL1        0.0277
      6 H          -3.8298   -2.7380    1.4858 H       1  UNL1        0.0277
      7 H          -4.4956   -1.0863    1.4577 H       1  UNL1        0.0277
      8 H          -1.7919   -0.3826    1.3892 H       1  UNL1        0.0277
      9 H          -1.2596   -2.0652    1.1870 H       1  UNL1        0.0277
     10 H          -0.7065   -0.7987    0.0670 H       1  UNL1        0.0277
     11 H          -1.7650   -3.0511   -1.7868 H       1  UNL1        0.0277
     12 H          -3.4767   -3.4657   -1.6498 H       1  UNL1        0.0277
     13 H          -2.3691   -3.8220   -0.2947 H       1  UNL1        0.0277
@<TRIPOS>BOND
     1    11     4    1
     2    12     4    1
     3     4     1    1
     4     4    13    1
     5     1     3    1
     6     1     2    1
     7    10     3    1
     8     5     2    1
     9     3     9    1
    10     3     8    1
    11     2     7    1
    12     2     6    1
