@<TRIPOS>MOLECULE
1
 13 12 0 0 0
SMALL
GASTEIGER

@<TRIPOS>ATOM
      1 P          -4.9855    1.0031   -4.0297 P.3     1  UNL1       -0.1154
      2 C          -5.2959   -0.2756   -5.3065 C.3     1  UNL1       -0.0447
      3 C          -4.3231    2.3653   -5.0720 C.3     1  UNL1       -0.0447
      4 C          -6.7149    1.5746   -3.7962 C.3     1  UNL1       -0.0447
      5 H          -4.3523   -0.6417   -5.7097 H       1  UNL1        0.0277
      6 H          -5.9114    0.1216   -6.1150 H       1  UNL1        0.0277
      7 H          -5.8118   -1.1066   -4.8245 H       1  UNL1        0.0277
      8 H          -4.1626    3.2481   -4.4569 H       1  UNL1        0.0277
      9 H          -5.0143    2.6025   -5.8804 H       1  UNL1        0.0277
     10 H          -3.3664    2.0607   -5.4896 H       1  UNL1        0.0277
     11 H          -7.2565    0.7890   -3.2714 H       1  UNL1        0.0277
     12 H          -7.1850    1.7616   -4.7622 H       1  UNL1        0.0277
     13 H          -6.7386    2.4851   -3.2001 H       1  UNL1        0.0277
@<TRIPOS>BOND
     1     6     2    1
     2     9     3    1
     3     5     2    1
     4    10     3    1
     5     2     7    1
     6     2     1    1
     7     3     8    1
     8     3     1    1
     9    12     4    1
    10     1     4    1
    11     4    11    1
    12     4    13    1
