@<TRIPOS>MOLECULE
1
 34 36 0 0 0
SMALL
GASTEIGER

@<TRIPOS>ATOM
      1 P           9.2891   12.7638   17.3339 P.3     1  UNL1       -0.0131
      2 C           9.1514   14.4373   16.6145 C.ar    1  UNL1       -0.0147
      3 C           8.9957   14.5530   15.2397 C.ar    1  UNL1       -0.0535
      4 H           9.0057   13.6500   14.6406 H       1  UNL1        0.0624
      5 C           8.8103   15.7944   14.6583 C.ar    1  UNL1       -0.0611
      6 H           8.6883   15.8778   13.5881 H       1  UNL1        0.0618
      7 C           8.7765   16.9280   15.4525 C.ar    1  UNL1       -0.0617
      8 H           8.6391   17.9005   15.0026 H       1  UNL1        0.0618
      9 C           8.9042   16.8153   16.8287 C.ar    1  UNL1       -0.0611
     10 H           8.8595   17.6994   17.4485 H       1  UNL1        0.0618
     11 C           9.0787   15.5750   17.4132 C.ar    1  UNL1       -0.0535
     12 H           9.1567   15.4836   18.4881 H       1  UNL1        0.0624
     13 C           7.6327   12.8299   18.1132 C.ar    1  UNL1       -0.0147
     14 C           6.5683   12.8349   17.2126 C.ar    1  UNL1       -0.0535
     15 H           6.7751   12.6891   16.1611 H       1  UNL1        0.0624
     16 C           5.2738   12.9974   17.6634 C.ar    1  UNL1       -0.0611
     17 H           4.4558   13.0025   16.9580 H       1  UNL1        0.0618
     18 C           5.0261   13.1546   19.0181 C.ar    1  UNL1       -0.0617
     19 H           4.0141   13.2807   19.3750 H       1  UNL1        0.0618
     20 C           6.0803   13.1562   19.9138 C.ar    1  UNL1       -0.0611
     21 H           5.8921   13.2859   20.9701 H       1  UNL1        0.0618
     22 C           7.3827   13.0063   19.4674 C.ar    1  UNL1       -0.0535
     23 H           8.1926   13.0357   20.1811 H       1  UNL1        0.0624
     24 C          10.4306   12.9864   18.7346 C.ar    1  UNL1       -0.0147
     25 C          11.4405   13.9434   18.7308 C.ar    1  UNL1       -0.0535
     26 H          11.5138   14.6450   17.9110 H       1  UNL1        0.0624
     27 C          12.3517   13.9971   19.7711 C.ar    1  UNL1       -0.0611
     28 H          13.1312   14.7457   19.7632 H       1  UNL1        0.0618
     29 C          12.2704   13.0940   20.8185 C.ar    1  UNL1       -0.0617
     30 H          12.9809   13.1431   21.6306 H       1  UNL1        0.0618
     31 C          11.2855   12.1186   20.8141 C.ar    1  UNL1       -0.0611
     32 H          11.2322   11.3982   21.6177 H       1  UNL1        0.0618
     33 C          10.3794   12.0568   19.7722 C.ar    1  UNL1       -0.0535
     34 H           9.6294   11.2764   19.7385 H       1  UNL1        0.0624
@<TRIPOS>BOND
     1     6     5    1
     2     4     3    1
     3     5     3   ar
     4     5     7   ar
     5     8     7    1
     6     3     2   ar
     7     7     9   ar
     8    15    14    1
     9     2     1    1
    10     2    11   ar
    11     9    11   ar
    12     9    10    1
    13    17    16    1
    14    14    16   ar
    15    14    13   ar
    16     1    13    1
    17     1    24    1
    18    11    12    1
    19    16    18   ar
    20    26    25    1
    21    13    22   ar
    22    25    24   ar
    23    25    27   ar
    24    24    33   ar
    25    18    19    1
    26    18    20   ar
    27    22    20   ar
    28    22    23    1
    29    34    33    1
    30    28    27    1
    31    27    29   ar
    32    33    31   ar
    33    20    21    1
    34    31    29   ar
    35    31    32    1
    36    29    30    1
