@<TRIPOS>MOLECULE
1
 34 36 0 0 0
SMALL
GASTEIGER

@<TRIPOS>ATOM
      1 P           9.5633    9.3834   17.1558 P.3     1  UNL1       -0.0131
      2 C           9.2485    7.8948   16.1386 C.ar    1  UNL1       -0.0147
      3 C          10.3633    7.2608   15.5904 C.ar    1  UNL1       -0.0535
      4 H          11.3522    7.6404   15.8131 H       1  UNL1        0.0624
      5 C          10.2149    6.1526   14.7800 C.ar    1  UNL1       -0.0611
      6 H          11.0866    5.6658   14.3666 H       1  UNL1        0.0618
      7 C           8.9478    5.6689   14.4950 C.ar    1  UNL1       -0.0617
      8 H           8.8291    4.8038   13.8595 H       1  UNL1        0.0618
      9 C           7.8364    6.3003   15.0259 C.ar    1  UNL1       -0.0611
     10 H           6.8472    5.9249   14.8057 H       1  UNL1        0.0618
     11 C           7.9809    7.4093   15.8425 C.ar    1  UNL1       -0.0535
     12 H           7.1076    7.8914   16.2547 H       1  UNL1        0.0624
     13 C          10.8218    8.6840   18.2859 C.ar    1  UNL1       -0.0147
     14 C          10.7265    7.3665   18.7300 C.ar    1  UNL1       -0.0535
     15 H           9.9094    6.7451   18.3894 H       1  UNL1        0.0624
     16 C          11.6702    6.8579   19.6023 C.ar    1  UNL1       -0.0611
     17 H          11.5921    5.8347   19.9405 H       1  UNL1        0.0618
     18 C          12.7134    7.6565   20.0461 C.ar    1  UNL1       -0.0617
     19 H          13.4491    7.2542   20.7271 H       1  UNL1        0.0618
     20 C          12.8086    8.9686   19.6154 C.ar    1  UNL1       -0.0611
     21 H          13.6163    9.5975   19.9614 H       1  UNL1        0.0618
     22 C          11.8669    9.4777   18.7383 C.ar    1  UNL1       -0.0535
     23 H          11.9316   10.5019   18.3980 H       1  UNL1        0.0624
     24 C           8.1006    9.4215   18.2484 C.ar    1  UNL1       -0.0147
     25 C           8.1353    9.0985   19.6014 C.ar    1  UNL1       -0.0535
     26 H           9.0619    8.7981   20.0702 H       1  UNL1        0.0624
     27 C           6.9780    9.1611   20.3579 C.ar    1  UNL1       -0.0611
     28 H           7.0146    8.9161   21.4098 H       1  UNL1        0.0618
     29 C           5.7780    9.5270   19.7725 C.ar    1  UNL1       -0.0617
     30 H           4.8759    9.5605   20.3656 H       1  UNL1        0.0618
     31 C           5.7402    9.8595   18.4288 C.ar    1  UNL1       -0.0611
     32 H           4.8085   10.1545   17.9699 H       1  UNL1        0.0618
     33 C           6.8980    9.8292   17.6742 C.ar    1  UNL1       -0.0535
     34 H           6.8971   10.1396   16.6372 H       1  UNL1        0.0624
@<TRIPOS>BOND
     1     8     7    1
     2     6     5    1
     3     7     5   ar
     4     7     9   ar
     5     5     3   ar
     6    10     9    1
     7     9    11   ar
     8     3     4    1
     9     3     2   ar
    10    11     2   ar
    11    11    12    1
    12     2     1    1
    13    34    33    1
    14     1    24    1
    15     1    13    1
    16    33    24   ar
    17    33    31   ar
    18    32    31    1
    19    24    25   ar
    20    13    14   ar
    21    13    22   ar
    22    15    14    1
    23    23    22    1
    24    31    29   ar
    25    14    16   ar
    26    22    20   ar
    27    25    26    1
    28    25    27   ar
    29    16    17    1
    30    16    18   ar
    31    20    21    1
    32    20    18   ar
    33    29    27   ar
    34    29    30    1
    35    18    19    1
    36    27    28    1
