@<TRIPOS>MOLECULE
1
 13 12 0 0 0
SMALL
GASTEIGER

@<TRIPOS>ATOM
      1 P           5.7241    7.1191   19.7084 P.3     1  UNL1       -0.1154
      2 C           3.9002    7.4350   19.6663 C.3     1  UNL1       -0.0447
      3 C           6.1977    8.1255   18.2274 C.3     1  UNL1       -0.0447
      4 C           5.7323    5.4436   18.9175 C.3     1  UNL1       -0.0447
      5 H           3.4089    6.7885   20.3899 H       1  UNL1        0.0277
      6 H           3.7062    8.4711   19.9445 H       1  UNL1        0.0277
      7 H           3.4940    7.2387   18.6749 H       1  UNL1        0.0277
      8 H           5.5876    7.8593   17.3654 H       1  UNL1        0.0277
      9 H           7.2451    7.9482   17.9935 H       1  UNL1        0.0277
     10 H           6.0713    9.1844   18.4540 H       1  UNL1        0.0277
     11 H           5.3097    4.7222   19.6140 H       1  UNL1        0.0277
     12 H           5.1587    5.4324   17.9919 H       1  UNL1        0.0277
     13 H           6.7610    5.1559   18.7096 H       1  UNL1        0.0277
@<TRIPOS>BOND
     1     8     3    1
     2    12     4    1
     3     9     3    1
     4     3    10    1
     5     3     1    1
     6     7     2    1
     7    13     4    1
     8     4    11    1
     9     4     1    1
    10     2     1    1
    11     2     6    1
    12     2     5    1
