@<TRIPOS>MOLECULE
1
 13 12 0 0 0
SMALL
GASTEIGER

@<TRIPOS>ATOM
      1 P           1.3811    2.5035   -2.0618 P.3     1  UNL1       -0.1154
      2 C          -0.4555    2.3875   -1.8429 C.3     1  UNL1       -0.0447
      3 C           1.3981    2.6351   -3.9137 C.3     1  UNL1       -0.0447
      4 C           1.7414    0.6896   -1.9355 C.3     1  UNL1       -0.0447
      5 H          -0.9328    3.2939   -2.2122 H       1  UNL1        0.0277
      6 H          -0.8596    1.5323   -2.3841 H       1  UNL1        0.0277
      7 H          -0.6725    2.2828   -0.7804 H       1  UNL1        0.0277
      8 H           1.0260    3.6153   -4.2051 H       1  UNL1        0.0277
      9 H           2.4178    2.5353   -4.2798 H       1  UNL1        0.0277
     10 H           0.7781    1.8677   -4.3736 H       1  UNL1        0.0277
     11 H           1.0544    0.1153   -2.5572 H       1  UNL1        0.0277
     12 H           2.7625    0.4840   -2.2517 H       1  UNL1        0.0277
     13 H           1.6277    0.3882   -0.8948 H       1  UNL1        0.0277
@<TRIPOS>BOND
     1    10     3    1
     2     9     3    1
     3     8     3    1
     4     3     1    1
     5    11     4    1
     6     6     2    1
     7    12     4    1
     8     5     2    1
     9     1     4    1
    10     1     2    1
    11     4    13    1
    12     2     7    1
