@<TRIPOS>MOLECULE
1
 43 43 0 0 0
SMALL
GASTEIGER

@<TRIPOS>ATOM
      1 P          -2.8865    5.7352    2.5357 P.3     1  UNL1        0.0000
      2 C          -3.8656    7.2971    2.3841 C.3     1  UNL1        0.0000
      3 C          -4.6323    6.0173    2.0673 C.3     1  UNL1        0.0000
      4 SI         -3.0958    8.2809    0.9244 Si      1  UNL1        0.0000
      5 C          -4.4157    8.9399   -0.2901 C.3     1  UNL1        0.0000
      6 C          -1.7709    7.2878   -0.0275 C.3     1  UNL1        0.0000
      7 C          -2.1724    9.8218    1.5729 C.3     1  UNL1        0.0000
      8 SI         -4.5447    8.3085    3.8547 Si      1  UNL1        0.0000
      9 C          -3.2229    9.3764    4.7316 C.3     1  UNL1        0.0000
     10 C          -5.3636    7.2473    5.2091 C.3     1  UNL1        0.0000
     11 C          -5.9045    9.4533    3.1549 C.3     1  UNL1        0.0000
     12 SI         -5.4857    5.3343    0.5117 Si      1  UNL1        0.0000
     13 C          -7.0818    6.3374    0.1979 C.3     1  UNL1        0.0000
     14 C          -4.4516    5.1727   -1.0807 C.3     1  UNL1        0.0000
     15 C          -5.9635    3.5625    1.0392 C.3     1  UNL1        0.0000
     16 H          -5.2576    5.7272    2.9127 H       1  UNL1        0.0000
     17 H          -5.2277    9.4324    0.2327 H       1  UNL1        0.0000
     18 H          -3.9685    9.6692   -0.9585 H       1  UNL1        0.0000
     19 H          -4.8447    8.1553   -0.9010 H       1  UNL1        0.0000
     20 H          -2.0770    6.2635   -0.2035 H       1  UNL1        0.0000
     21 H          -1.5560    7.7438   -0.9895 H       1  UNL1        0.0000
     22 H          -0.8424    7.2548    0.5349 H       1  UNL1        0.0000
     23 H          -2.8533   10.5629    1.9738 H       1  UNL1        0.0000
     24 H          -1.4558    9.5748    2.3471 H       1  UNL1        0.0000
     25 H          -1.6248   10.2889    0.7606 H       1  UNL1        0.0000
     26 H          -3.1827   10.3749    4.3125 H       1  UNL1        0.0000
     27 H          -3.4569    9.4821    5.7869 H       1  UNL1        0.0000
     28 H          -2.2294    8.9506    4.6555 H       1  UNL1        0.0000
     29 H          -6.2099    6.6831    4.8322 H       1  UNL1        0.0000
     30 H          -4.6581    6.5402    5.6387 H       1  UNL1        0.0000
     31 H          -5.7305    7.8773    6.0141 H       1  UNL1        0.0000
     32 H          -6.6289    8.8966    2.5692 H       1  UNL1        0.0000
     33 H          -6.4422    9.9496    3.9567 H       1  UNL1        0.0000
     34 H          -5.4849   10.2243    2.5179 H       1  UNL1        0.0000
     35 H          -6.8817    7.3884    0.0229 H       1  UNL1        0.0000
     36 H          -7.6173    5.9557   -0.6658 H       1  UNL1        0.0000
     37 H          -7.7502    6.2699    1.0510 H       1  UNL1        0.0000
     38 H          -4.1183    6.1249   -1.4754 H       1  UNL1        0.0000
     39 H          -3.5745    4.5566   -0.9075 H       1  UNL1        0.0000
     40 H          -5.0412    4.6858   -1.8524 H       1  UNL1        0.0000
     41 H          -5.0843    2.9971    1.3344 H       1  UNL1        0.0000
     42 H          -6.6403    3.5714    1.8881 H       1  UNL1        0.0000
     43 H          -6.4517    3.0174    0.2374 H       1  UNL1        0.0000
@<TRIPOS>BOND
     1    40    14    1
     2    38    14    1
     3    14    39    1
     4    14    12    1
     5    21     6    1
     6    18     5    1
     7    19     5    1
     8    36    13    1
     9     5    17    1
    10     5     4    1
    11    20     6    1
    12     6    22    1
    13     6     4    1
    14    35    13    1
    15    13    12    1
    16    13    37    1
    17    43    15    1
    18    12    15    1
    19    12     3    1
    20    25     7    1
    21     4     7    1
    22     4     2    1
    23    15    41    1
    24    15    42    1
    25     7    23    1
    26     7    24    1
    27     3     2    1
    28     3     1    1
    29     3    16    1
    30     2     1    1
    31     2     8    1
    32    34    11    1
    33    32    11    1
    34    11     8    1
    35    11    33    1
    36     8     9    1
    37     8    10    1
    38    26     9    1
    39    28     9    1
    40     9    27    1
    41    29    10    1
    42    10    30    1
    43    10    31    1
