@<TRIPOS>MOLECULE
1
 31 30 0 0 0
SMALL
GASTEIGER

@<TRIPOS>ATOM
      1 P           3.4928    1.9444    2.3283 P.3     1  UNL1       -0.0980
      2 C           2.4673    0.4029    1.9970 C.3     1  UNL1       -0.0257
      3 H           3.2032   -0.4011    1.8886 H       1  UNL1        0.0344
      4 C           1.5187    0.0265    3.1341 C.3     1  UNL1       -0.0587
      5 H           0.8732   -0.7861    2.8022 H       1  UNL1        0.0236
      6 H           0.8815    0.8613    3.4124 H       1  UNL1        0.0236
      7 H           2.0504   -0.3180    4.0176 H       1  UNL1        0.0236
      8 C           1.6843    0.5116    0.6930 C.3     1  UNL1       -0.0587
      9 H           1.2476   -0.4550    0.4426 H       1  UNL1        0.0236
     10 H           2.3164    0.8324   -0.1306 H       1  UNL1        0.0236
     11 H           0.8783    1.2352    0.7857 H       1  UNL1        0.0236
     12 C           4.8427    1.8133    1.0295 C.3     1  UNL1       -0.0257
     13 H           4.3936    2.3495    0.1821 H       1  UNL1        0.0344
     14 C           6.0817    2.5948    1.4630 C.3     1  UNL1       -0.0587
     15 H           6.7081    2.7977    0.5966 H       1  UNL1        0.0236
     16 H           6.6736    2.0284    2.1779 H       1  UNL1        0.0236
     17 H           5.7919    3.5460    1.9055 H       1  UNL1        0.0236
     18 C           5.2424    0.4178    0.5518 C.3     1  UNL1       -0.0587
     19 H           6.0399    0.5269   -0.1821 H       1  UNL1        0.0236
     20 H           4.4204   -0.0979    0.0642 H       1  UNL1        0.0236
     21 H           5.6204   -0.2011    1.3606 H       1  UNL1        0.0236
     22 C           4.1975    1.4830    4.0100 C.3     1  UNL1       -0.0257
     23 H           3.2889    1.3098    4.6014 H       1  UNL1        0.0344
     24 C           5.0337    0.2050    4.0384 C.3     1  UNL1       -0.0587
     25 H           5.2394   -0.0628    5.0745 H       1  UNL1        0.0236
     26 H           5.9884    0.3551    3.5426 H       1  UNL1        0.0236
     27 H           4.5229   -0.6346    3.5748 H       1  UNL1        0.0236
     28 C           4.9573    2.6088    4.7053 C.3     1  UNL1       -0.0587
     29 H           5.1435    2.3304    5.7420 H       1  UNL1        0.0236
     30 H           4.3799    3.5314    4.6978 H       1  UNL1        0.0236
     31 H           5.9137    2.8009    4.2299 H       1  UNL1        0.0236
@<TRIPOS>BOND
     1    19    18    1
     2    10     8    1
     3    20    18    1
     4    13    12    1
     5     9     8    1
     6    18    12    1
     7    18    21    1
     8    15    14    1
     9     8    11    1
    10     8     2    1
    11    12    14    1
    12    12     1    1
    13    14    17    1
    14    14    16    1
    15     3     2    1
    16     2     1    1
    17     2     4    1
    18     1    22    1
    19     5     4    1
    20     4     6    1
    21     4     7    1
    22    26    24    1
    23    27    24    1
    24    22    24    1
    25    22    23    1
    26    22    28    1
    27    24    25    1
    28    31    28    1
    29    30    28    1
    30    28    29    1
