@<TRIPOS>MOLECULE
1
 34 36 0 0 0
SMALL
GASTEIGER

@<TRIPOS>ATOM
      1 P           5.2256    5.9006    6.0907 P.3     1  UNL1       -0.0131
      2 C           4.3184    7.4713    6.3707 C.ar    1  UNL1       -0.0147
      3 C           4.0076    8.2723    5.2806 C.ar    1  UNL1       -0.0535
      4 H           4.2988    7.9470    4.2922 H       1  UNL1        0.0624
      5 C           3.3506    9.4771    5.4603 C.ar    1  UNL1       -0.0611
      6 H           3.1084   10.0876    4.6033 H       1  UNL1        0.0618
      7 C           3.0071    9.8940    6.7347 C.ar    1  UNL1       -0.0617
      8 H           2.4914   10.8321    6.8783 H       1  UNL1        0.0618
      9 C           3.3382    9.1118    7.8306 C.ar    1  UNL1       -0.0611
     10 H           3.0857    9.4440    8.8274 H       1  UNL1        0.0618
     11 C           3.9956    7.9093    7.6534 C.ar    1  UNL1       -0.0535
     12 H           4.2629    7.3076    8.5110 H       1  UNL1        0.0624
     13 C           6.6895    6.3443    7.1115 C.ar    1  UNL1       -0.0147
     14 C           6.8190    6.0611    8.4675 C.ar    1  UNL1       -0.0535
     15 H           6.0539    5.5018    8.9869 H       1  UNL1        0.0624
     16 C           7.9373    6.4846    9.1649 C.ar    1  UNL1       -0.0611
     17 H           8.0294    6.2530   10.2164 H       1  UNL1        0.0618
     18 C           8.9318    7.2016    8.5231 C.ar    1  UNL1       -0.0617
     19 H           9.8036    7.5274    9.0710 H       1  UNL1        0.0618
     20 C           8.8027    7.5002    7.1763 C.ar    1  UNL1       -0.0611
     21 H           9.5729    8.0619    6.6697 H       1  UNL1        0.0618
     22 C           7.6887    7.0765    6.4762 C.ar    1  UNL1       -0.0535
     23 H           7.5843    7.3041    5.4256 H       1  UNL1        0.0624
     24 C           4.3634    4.7584    7.2243 C.ar    1  UNL1       -0.0147
     25 C           3.0491    4.9237    7.6449 C.ar    1  UNL1       -0.0535
     26 H           2.4899    5.7959    7.3371 H       1  UNL1        0.0624
     27 C           2.4626    3.9816    8.4726 C.ar    1  UNL1       -0.0611
     28 H           1.4484    4.1294    8.8166 H       1  UNL1        0.0618
     29 C           3.1688    2.8559    8.8637 C.ar    1  UNL1       -0.0617
     30 H           2.7058    2.1234    9.5087 H       1  UNL1        0.0618
     31 C           4.4699    2.6703    8.4231 C.ar    1  UNL1       -0.0611
     32 H           5.0223    1.7915    8.7231 H       1  UNL1        0.0618
     33 C           5.0626    3.6163    7.6096 C.ar    1  UNL1       -0.0535
     34 H           6.0852    3.4989    7.2760 H       1  UNL1        0.0624
@<TRIPOS>BOND
     1     4     3    1
     2     6     5    1
     3     3     5   ar
     4     3     2   ar
     5    23    22    1
     6     5     7   ar
     7     1     2    1
     8     1    13    1
     9     1    24    1
    10     2    11   ar
    11    22    13   ar
    12    22    20   ar
    13    21    20    1
    14     7     8    1
    15     7     9   ar
    16    13    14   ar
    17    20    18   ar
    18    24    33   ar
    19    24    25   ar
    20    34    33    1
    21    26    25    1
    22    33    31   ar
    23    25    27   ar
    24    11     9   ar
    25    11    12    1
    26     9    10    1
    27    31    32    1
    28    31    29   ar
    29    14    15    1
    30    14    16   ar
    31    27    28    1
    32    27    29   ar
    33    18    19    1
    34    18    16   ar
    35    29    30    1
    36    16    17    1
