@<TRIPOS>MOLECULE
1
 16 15 0 0 0
SMALL
GASTEIGER

@<TRIPOS>ATOM
      1 P           2.2940   12.2413    8.0797 P.3     1  UNL1        0.3337
      2 O           1.2873   11.8968    9.3359 O.3     1  UNL1       -0.3149
      3 C           1.6410   10.8065   10.1625 C.3     1  UNL1        0.0452
      4 H           2.2177   10.0665    9.5981 H       1  UNL1        0.0528
      5 H           0.7186   10.3575   10.5308 H       1  UNL1        0.0528
      6 H           2.2473   11.1524   11.0024 H       1  UNL1        0.0528
      7 O           3.5910   12.8322    8.8204 O.3     1  UNL1       -0.3149
      8 C           3.5000   13.9414    9.7181 C.3     1  UNL1        0.0452
      9 H           3.5934   14.8750    9.1634 H       1  UNL1        0.0528
     10 H           4.3279   13.8447   10.4198 H       1  UNL1        0.0528
     11 H           2.5490   13.9340   10.2536 H       1  UNL1        0.0528
     12 O           1.6081   13.6418    7.6795 O.3     1  UNL1       -0.3149
     13 C           0.4955   13.7672    6.8103 C.3     1  UNL1        0.0452
     14 H          -0.3074   13.0823    7.0834 H       1  UNL1        0.0528
     15 H           0.8013   13.5929    5.7762 H       1  UNL1        0.0528
     16 H           0.1454   14.7957    6.9113 H       1  UNL1        0.0528
@<TRIPOS>BOND
     1    15    13    1
     2    13    16    1
     3    13    14    1
     4    13    12    1
     5    12     1    1
     6     1     7    1
     7     1     2    1
     8     7     8    1
     9     9     8    1
    10     2     3    1
    11     4     3    1
    12     8    11    1
    13     8    10    1
    14     3     5    1
    15     3     6    1
