@<TRIPOS>MOLECULE
1
 16 15 0 0 0
SMALL
GASTEIGER

@<TRIPOS>ATOM
      1 P           0.9974    3.0383    7.5718 P.3     1  UNL1        0.3337
      2 O          -0.2161    1.9850    7.5552 O.3     1  UNL1       -0.3149
      3 C          -1.5504    2.3843    7.2525 C.3     1  UNL1        0.0452
      4 H          -1.7911    3.3267    7.7462 H       1  UNL1        0.0528
      5 H          -2.2030    1.5923    7.6186 H       1  UNL1        0.0528
      6 H          -1.6718    2.5032    6.1757 H       1  UNL1        0.0528
      7 O           0.6887    3.8031    6.1864 O.3     1  UNL1       -0.3149
      8 C           1.5440    4.8481    5.7611 C.3     1  UNL1        0.0452
      9 H           1.4539    5.7097    6.4239 H       1  UNL1        0.0528
     10 H           1.2287    5.1155    4.7529 H       1  UNL1        0.0528
     11 H           2.5862    4.5174    5.7494 H       1  UNL1        0.0528
     12 O           0.4263    4.2377    8.5225 O.3     1  UNL1       -0.3149
     13 C           0.6731    4.3096    9.9160 C.3     1  UNL1        0.0452
     14 H           0.5833    3.3297   10.3860 H       1  UNL1        0.0528
     15 H          -0.0770    4.9858   10.3272 H       1  UNL1        0.0528
     16 H           1.6696    4.7112   10.1033 H       1  UNL1        0.0528
@<TRIPOS>BOND
     1    10     8    1
     2    11     8    1
     3     8     7    1
     4     8     9    1
     5     6     3    1
     6     7     1    1
     7     3     2    1
     8     3     5    1
     9     3     4    1
    10     2     1    1
    11     1    12    1
    12    12    13    1
    13    13    16    1
    14    13    15    1
    15    13    14    1
