@<TRIPOS>MOLECULE
1
 37 39 0 0 0
SMALL
GASTEIGER

@<TRIPOS>ATOM
      1 P           7.1592    6.1113    5.3379 P.3     1  UNL1        0.5328
      2 O           7.0703    6.2398    6.9441 O.3     1  UNL1       -0.4083
      3 C           6.8612    5.2160    7.8532 C.ar    1  UNL1        0.1314
      4 C           5.9154    4.2213    7.6638 C.ar    1  UNL1       -0.0194
      5 H           5.3243    4.2114    6.7631 H       1  UNL1        0.0654
      6 C           5.7400    3.2514    8.6359 C.ar    1  UNL1       -0.0583
      7 H           5.0031    2.4769    8.4843 H       1  UNL1        0.0619
      8 C           6.4976    3.2704    9.7937 C.ar    1  UNL1       -0.0615
      9 H           6.3535    2.5128   10.5490 H       1  UNL1        0.0618
     10 C           7.4432    4.2652    9.9782 C.ar    1  UNL1       -0.0583
     11 H           8.0407    4.2864   10.8771 H       1  UNL1        0.0619
     12 C           7.6319    5.2343    9.0107 C.ar    1  UNL1       -0.0194
     13 H           8.3688    6.0122    9.1406 H       1  UNL1        0.0654
     14 O           5.5833    5.8636    5.0431 O.3     1  UNL1       -0.4083
     15 C           5.0331    5.5973    3.8140 C.ar    1  UNL1        0.1314
     16 C           3.6533    5.4324    3.7691 C.ar    1  UNL1       -0.0194
     17 H           3.0838    5.5309    4.6804 H       1  UNL1        0.0654
     18 C           3.0361    5.1479    2.5653 C.ar    1  UNL1       -0.0583
     19 H           1.9642    5.0196    2.5337 H       1  UNL1        0.0619
     20 C           3.7858    5.0259    1.4073 C.ar    1  UNL1       -0.0615
     21 H           3.3015    4.8039    0.4688 H       1  UNL1        0.0618
     22 C           5.1587    5.1904    1.4591 C.ar    1  UNL1       -0.0583
     23 H           5.7517    5.1017    0.5621 H       1  UNL1        0.0619
     24 C           5.7877    5.4752    2.6585 C.ar    1  UNL1       -0.0194
     25 H           6.8582    5.6086    2.7076 H       1  UNL1        0.0654
     26 O           7.6089    4.5677    5.1093 O.3     1  UNL1       -0.4083
     27 C           8.9297    4.1782    4.9918 C.ar    1  UNL1        0.1314
     28 C           9.8372    4.4158    6.0116 C.ar    1  UNL1       -0.0194
     29 H           9.5179    4.9509    6.8929 H       1  UNL1        0.0654
     30 C          11.1400    3.9682    5.8829 C.ar    1  UNL1       -0.0583
     31 H          11.8500    4.1628    6.6717 H       1  UNL1        0.0619
     32 C          11.5341    3.2887    4.7438 C.ar    1  UNL1       -0.0615
     33 H          12.5543    2.9516    4.6421 H       1  UNL1        0.0618
     34 C          10.6208    3.0489    3.7313 C.ar    1  UNL1       -0.0583
     35 H          10.9259    2.5250    2.8386 H       1  UNL1        0.0619
     36 C           9.3156    3.4903    3.8509 C.ar    1  UNL1       -0.0194
     37 H           8.5924    3.3181    3.0694 H       1  UNL1        0.0654
@<TRIPOS>BOND
     1    21    20    1
     2    23    22    1
     3    20    22   ar
     4    20    18   ar
     5    22    24   ar
     6    19    18    1
     7    18    16   ar
     8    24    25    1
     9    24    15   ar
    10    35    34    1
    11    37    36    1
    12    34    36   ar
    13    34    32   ar
    14    16    15   ar
    15    16    17    1
    16    15    14    1
    17    36    27   ar
    18    33    32    1
    19    32    30   ar
    20    27    26    1
    21    27    28   ar
    22    14     1    1
    23    26     1    1
    24     1     2    1
    25    30    28   ar
    26    30    31    1
    27    28    29    1
    28     5     4    1
    29     2     3    1
    30     4     3   ar
    31     4     6   ar
    32     3    12   ar
    33     7     6    1
    34     6     8   ar
    35    12    13    1
    36    12    10   ar
    37     8    10   ar
    38     8     9    1
    39    10    11    1
