@<TRIPOS>MOLECULE
1
 34 36 0 0 0
SMALL
GASTEIGER

@<TRIPOS>ATOM
      1 P           7.9178    6.0225    4.5804 P.3     1  UNL1       -0.0131
      2 C           6.8358    4.7592    5.3403 C.ar    1  UNL1       -0.0147
      3 C           6.7679    4.5727    6.7189 C.ar    1  UNL1       -0.0535
      4 H           7.3666    5.1908    7.3742 H       1  UNL1        0.0624
      5 C           5.9273    3.6091    7.2432 C.ar    1  UNL1       -0.0611
      6 H           5.8787    3.4613    8.3125 H       1  UNL1        0.0618
      7 C           5.1441    2.8338    6.4011 C.ar    1  UNL1       -0.0617
      8 H           4.4904    2.0807    6.8167 H       1  UNL1        0.0618
      9 C           5.1856    3.0374    5.0325 C.ar    1  UNL1       -0.0611
     10 H           4.5655    2.4442    4.3778 H       1  UNL1        0.0618
     11 C           6.0251    4.0027    4.5052 C.ar    1  UNL1       -0.0535
     12 H           6.0510    4.1963    3.4412 H       1  UNL1        0.0624
     13 C           9.5378    5.7321    5.3648 C.ar    1  UNL1       -0.0147
     14 C          10.4969    6.7118    5.1031 C.ar    1  UNL1       -0.0535
     15 H          10.2122    7.5644    4.4964 H       1  UNL1        0.0624
     16 C          11.7762    6.5923    5.6071 C.ar    1  UNL1       -0.0611
     17 H          12.5139    7.3549    5.4025 H       1  UNL1        0.0618
     18 C          12.1115    5.4891    6.3787 C.ar    1  UNL1       -0.0617
     19 H          13.1100    5.3943    6.7797 H       1  UNL1        0.0618
     20 C          11.1690    4.5078    6.6273 C.ar    1  UNL1       -0.0611
     21 H          11.4316    3.6501    7.2282 H       1  UNL1        0.0618
     22 C           9.8878    4.6162    6.1115 C.ar    1  UNL1       -0.0535
     23 H           9.1654    3.8327    6.2888 H       1  UNL1        0.0624
     24 C           7.3284    7.4564    5.5624 C.ar    1  UNL1       -0.0147
     25 C           6.1059    8.0007    5.1764 C.ar    1  UNL1       -0.0535
     26 H           5.5847    7.5712    4.3326 H       1  UNL1        0.0624
     27 C           5.5741    9.0806    5.8540 C.ar    1  UNL1       -0.0611
     28 H           4.6289    9.4990    5.5424 H       1  UNL1        0.0618
     29 C           6.2573    9.6305    6.9275 C.ar    1  UNL1       -0.0617
     30 H           5.8473   10.4797    7.4538 H       1  UNL1        0.0618
     31 C           7.4679    9.0891    7.3222 C.ar    1  UNL1       -0.0611
     32 H           8.0027    9.5129    8.1601 H       1  UNL1        0.0618
     33 C           8.0029    8.0048    6.6472 C.ar    1  UNL1       -0.0535
     34 H           8.9505    7.5947    6.9663 H       1  UNL1        0.0624
@<TRIPOS>BOND
     1    12    11    1
     2    26    25    1
     3    10     9    1
     4    15    14    1
     5    11     9   ar
     6    11     2   ar
     7     1     2    1
     8     1    13    1
     9     1    24    1
    10     9     7   ar
    11    14    13   ar
    12    14    16   ar
    13    25    24   ar
    14    25    27   ar
    15     2     3   ar
    16    13    22   ar
    17    17    16    1
    18    28    27    1
    19    24    33   ar
    20    16    18   ar
    21    27    29   ar
    22    22    23    1
    23    22    20   ar
    24    18    20   ar
    25    18    19    1
    26     7     8    1
    27     7     5   ar
    28    20    21    1
    29    33    34    1
    30    33    31   ar
    31     3     5   ar
    32     3     4    1
    33    29    31   ar
    34    29    30    1
    35     5     6    1
    36    31    32    1
