@<TRIPOS>MOLECULE
1
 13 12 0 0 0
SMALL
GASTEIGER

@<TRIPOS>ATOM
      1 P           0.9214    5.3581    4.0794 P.3     1  UNL1       -0.1154
      2 C          -0.3692    4.2509    3.3843 C.3     1  UNL1       -0.0447
      3 H           0.0379    3.6014    2.6091 H       1  UNL1        0.0277
      4 H          -1.1664    4.8676    2.9729 H       1  UNL1        0.0277
      5 H          -0.7846    3.6498    4.1903 H       1  UNL1        0.0277
      6 C           1.6163    6.0105    2.5033 C.3     1  UNL1       -0.0447
      7 H           2.5181    6.5841    2.7034 H       1  UNL1        0.0277
      8 H           0.8747    6.6640    2.0483 H       1  UNL1        0.0277
      9 H           1.8493    5.1933    1.8211 H       1  UNL1        0.0277
     10 C           2.2027    4.1100    4.5070 C.3     1  UNL1       -0.0447
     11 H           1.8500    3.5343    5.3609 H       1  UNL1        0.0277
     12 H           3.1284    4.6127    4.7761 H       1  UNL1        0.0277
     13 H           2.3836    3.4400    3.6668 H       1  UNL1        0.0277
@<TRIPOS>BOND
     1     9     6    1
     2     8     6    1
     3     6     7    1
     4     6     1    1
     5     3     2    1
     6     4     2    1
     7     2     1    1
     8     2     5    1
     9    13    10    1
    10     1    10    1
    11    10    12    1
    12    10    11    1
