@<TRIPOS>MOLECULE
1
 32 32 0 0 0
SMALL
GASTEIGER

@<TRIPOS>ATOM
      1 P           1.8714    4.7113   -0.0566 P.3     1  UNL1       -0.0694
      2 C           2.4394    3.1938   -0.9116 C.ar    1  UNL1       -0.0229
      3 C           1.6957    2.4873   -1.8500 C.ar    1  UNL1       -0.0541
      4 C           2.2249    1.3627   -2.4598 C.ar    1  UNL1       -0.0612
      5 C           3.5021    0.9306   -2.1511 C.ar    1  UNL1       -0.0617
      6 C           4.2481    1.6220   -1.2118 C.ar    1  UNL1       -0.0612
      7 C           3.7157    2.7327   -0.5888 C.ar    1  UNL1       -0.0541
      8 C           3.2126    5.8334   -0.7537 C.3     1  UNL1       -0.0220
      9 C           3.2427    5.8205   -2.2801 C.3     1  UNL1       -0.0584
     10 C           3.2490    7.2644   -0.2280 C.3     1  UNL1       -0.0584
     11 C           0.3191    5.2020   -0.9891 C.3     1  UNL1       -0.0220
     12 C          -0.8765    4.3931   -0.4956 C.3     1  UNL1       -0.0584
     13 C           0.0216    6.6905   -0.8234 C.3     1  UNL1       -0.0584
     14 H           0.7025    2.8051   -2.1253 H       1  UNL1        0.0624
     15 H           1.6329    0.8247   -3.1863 H       1  UNL1        0.0618
     16 H           3.9122    0.0570   -2.6350 H       1  UNL1        0.0618
     17 H           5.2422    1.2898   -0.9529 H       1  UNL1        0.0618
     18 H           4.3018    3.2429    0.1648 H       1  UNL1        0.0624
     19 H           4.1177    5.3311   -0.3828 H       1  UNL1        0.0346
     20 H           4.1480    6.3196   -2.6237 H       1  UNL1        0.0236
     21 H           3.2471    4.8046   -2.6706 H       1  UNL1        0.0236
     22 H           2.3912    6.3522   -2.6989 H       1  UNL1        0.0236
     23 H           4.2331    7.6915   -0.4183 H       1  UNL1        0.0236
     24 H           2.5112    7.8987   -0.7099 H       1  UNL1        0.0236
     25 H           3.0756    7.2866    0.8454 H       1  UNL1        0.0236
     26 H           0.5057    4.9817   -2.0470 H       1  UNL1        0.0346
     27 H          -1.7620    4.6392   -1.0815 H       1  UNL1        0.0236
     28 H          -0.7013    3.3228   -0.5649 H       1  UNL1        0.0236
     29 H          -1.0764    4.6288    0.5479 H       1  UNL1        0.0236
     30 H          -1.0178    6.8913   -1.0810 H       1  UNL1        0.0236
     31 H           0.1779    6.9979    0.2106 H       1  UNL1        0.0236
     32 H           0.6469    7.3026   -1.4674 H       1  UNL1        0.0236
@<TRIPOS>BOND
     1    15     4    1
     2    22     9    1
     3    21     9    1
     4    16     5    1
     5    20     9    1
     6     4     5   ar
     7     4     3   ar
     8     9     8    1
     9     5     6   ar
    10    14     3    1
    11    26    11    1
    12     3     2   ar
    13    32    13    1
    14     6    17    1
    15     6     7   ar
    16    27    12    1
    17    30    13    1
    18    11    13    1
    19    11    12    1
    20    11     1    1
    21     2     7   ar
    22     2     1    1
    23    13    31    1
    24     8    19    1
    25     8    10    1
    26     8     1    1
    27    24    10    1
    28     7    18    1
    29    28    12    1
    30    12    29    1
    31    23    10    1
    32    10    25    1
