@<TRIPOS>MOLECULE
1
 32 32 0 0 0
SMALL
GASTEIGER

@<TRIPOS>ATOM
      1 P           0.8461    5.8904    4.6285 P.3     1  UNL1       -0.0694
      2 C           1.1656    5.0367    6.2092 C.ar    1  UNL1       -0.0229
      3 C           0.5494    3.7965    6.3808 C.ar    1  UNL1       -0.0541
      4 C           0.7709    3.0489    7.5194 C.ar    1  UNL1       -0.0612
      5 C           1.6214    3.5230    8.5048 C.ar    1  UNL1       -0.0617
      6 C           2.2570    4.7388    8.3318 C.ar    1  UNL1       -0.0612
      7 C           2.0405    5.4900    7.1892 C.ar    1  UNL1       -0.0541
      8 C          -1.0354    5.8745    4.6072 C.3     1  UNL1       -0.0220
      9 C          -1.7414    6.0917    5.9430 C.3     1  UNL1       -0.0584
     10 C          -1.6010    6.8085    3.5422 C.3     1  UNL1       -0.0584
     11 C           1.4261    7.6379    4.9668 C.3     1  UNL1       -0.0220
     12 C           1.4570    8.4973    3.7068 C.3     1  UNL1       -0.0584
     13 C           0.6856    8.3528    6.0935 C.3     1  UNL1       -0.0584
     14 H          -0.0977    3.4039    5.6082 H       1  UNL1        0.0624
     15 H           0.2847    2.0907    7.6288 H       1  UNL1        0.0618
     16 H           1.7993    2.9404    9.3962 H       1  UNL1        0.0618
     17 H           2.9369    5.1051    9.0869 H       1  UNL1        0.0618
     18 H           2.5683    6.4238    7.0749 H       1  UNL1        0.0624
     19 H          -1.2321    4.8413    4.2845 H       1  UNL1        0.0346
     20 H          -2.7771    5.7669    5.8458 H       1  UNL1        0.0236
     21 H          -1.2824    5.5150    6.7426 H       1  UNL1        0.0236
     22 H          -1.7498    7.1390    6.2290 H       1  UNL1        0.0236
     23 H          -2.6426    6.5571    3.3445 H       1  UNL1        0.0236
     24 H          -1.5636    7.8455    3.8688 H       1  UNL1        0.0236
     25 H          -1.0460    6.7126    2.6101 H       1  UNL1        0.0236
     26 H           2.4702    7.4760    5.2673 H       1  UNL1        0.0346
     27 H           1.9621    9.4393    3.9178 H       1  UNL1        0.0236
     28 H           2.0028    7.9890    2.9157 H       1  UNL1        0.0236
     29 H           0.4563    8.7226    3.3471 H       1  UNL1        0.0236
     30 H           1.2714    9.2110    6.4224 H       1  UNL1        0.0236
     31 H          -0.2756    8.7248    5.7472 H       1  UNL1        0.0236
     32 H           0.5249    7.7006    6.9487 H       1  UNL1        0.0236
@<TRIPOS>BOND
     1    25    10    1
     2    28    12    1
     3    23    10    1
     4    29    12    1
     5    10    24    1
     6    10     8    1
     7    12    27    1
     8    12    11    1
     9    19     8    1
    10     8     1    1
    11     8     9    1
    12     1    11    1
    13     1     2    1
    14    11    26    1
    15    11    13    1
    16    14     3    1
    17    31    13    1
    18    20     9    1
    19     9    22    1
    20     9    21    1
    21    13    30    1
    22    13    32    1
    23     2     3   ar
    24     2     7   ar
    25     3     4   ar
    26    18     7    1
    27     7     6   ar
    28     4    15    1
    29     4     5   ar
    30     6     5   ar
    31     6    17    1
    32     5    16    1
