@<TRIPOS>MOLECULE
1
 13 12 0 0 0
SMALL
GASTEIGER

@<TRIPOS>ATOM
      1 P           2.8945    9.8315    9.5191 P.3     1  UNL1       -0.1154
      2 C           1.4691    8.9261   10.2268 C.3     1  UNL1       -0.0447
      3 H           0.6423    8.9311    9.5163 H       1  UNL1        0.0277
      4 H           1.1682    9.4156   11.1516 H       1  UNL1        0.0277
      5 H           1.7527    7.9001   10.4515 H       1  UNL1        0.0277
      6 C           3.0944    8.8915    7.9538 C.3     1  UNL1       -0.0447
      7 H           2.1544    8.8655    7.4032 H       1  UNL1        0.0277
      8 H           3.3978    7.8766    8.2070 H       1  UNL1        0.0277
      9 H           3.8728    9.3353    7.3380 H       1  UNL1        0.0277
     10 C           1.9911   11.3302    8.9647 C.3     1  UNL1       -0.0447
     11 H           1.1355   11.0498    8.3511 H       1  UNL1        0.0277
     12 H           2.6392   11.9967    8.4021 H       1  UNL1        0.0277
     13 H           1.6557   11.8541    9.8591 H       1  UNL1        0.0277
@<TRIPOS>BOND
     1     9     6    1
     2     7     6    1
     3     6     8    1
     4     6     1    1
     5    11    10    1
     6    12    10    1
     7    10     1    1
     8    10    13    1
     9     3     2    1
    10     1     2    1
    11     2     5    1
    12     2     4    1
