@<TRIPOS>MOLECULE
1
 13 12 0 0 0
SMALL
GASTEIGER

@<TRIPOS>ATOM
      1 P           6.2245   10.3094   12.5287 P.3     1  UNL1       -0.1154
      2 C           5.7971    9.5486   14.1384 C.3     1  UNL1       -0.0447
      3 H           6.5719    9.7793   14.8698 H       1  UNL1        0.0277
      4 H           5.7059    8.4701   14.0298 H       1  UNL1        0.0277
      5 H           4.8402    9.9468   14.4714 H       1  UNL1        0.0277
      6 C           7.8932    9.5788   12.2919 C.3     1  UNL1       -0.0447
      7 H           8.5205    9.7739   13.1613 H       1  UNL1        0.0277
      8 H           8.3635    9.9807   11.3979 H       1  UNL1        0.0277
      9 H           7.7742    8.5041   12.1604 H       1  UNL1        0.0277
     10 C           6.6145   11.9946   13.1439 C.3     1  UNL1       -0.0447
     11 H           7.3373   11.9420   13.9576 H       1  UNL1        0.0277
     12 H           5.6818   12.4317   13.4991 H       1  UNL1        0.0277
     13 H           7.0058   12.6250   12.3500 H       1  UNL1        0.0277
@<TRIPOS>BOND
     1     8     6    1
     2     9     6    1
     3     6     1    1
     4     6     7    1
     5    13    10    1
     6     1    10    1
     7     1     2    1
     8    10    12    1
     9    10    11    1
    10     4     2    1
    11     2     5    1
    12     2     3    1
