@<TRIPOS>MOLECULE
1
 13 12 0 0 0
SMALL
GASTEIGER

@<TRIPOS>ATOM
      1 P           5.8346    3.5811    3.5594 P.3     1  UNL1       -0.1154
      2 C           5.2202    2.2109    2.5118 C.3     1  UNL1       -0.0447
      3 H           5.9126    2.0426    1.6867 H       1  UNL1        0.0277
      4 H           4.2378    2.4763    2.1253 H       1  UNL1        0.0277
      5 H           5.1272    1.3022    3.1027 H       1  UNL1        0.0277
      6 C           7.5145    2.9339    3.9246 C.3     1  UNL1       -0.0447
      7 H           8.0378    2.6920    2.9999 H       1  UNL1        0.0277
      8 H           7.4034    2.0341    4.5282 H       1  UNL1        0.0277
      9 H           8.0890    3.6578    4.4969 H       1  UNL1        0.0277
     10 C           6.1580    4.7942    2.2199 C.3     1  UNL1       -0.0447
     11 H           6.7820    4.3473    1.4464 H       1  UNL1        0.0277
     12 H           6.6404    5.6883    2.6058 H       1  UNL1        0.0277
     13 H           5.1920    5.0775    1.8030 H       1  UNL1        0.0277
@<TRIPOS>BOND
     1    11    10    1
     2     3     2    1
     3    13    10    1
     4     4     2    1
     5    10    12    1
     6    10     1    1
     7     2     5    1
     8     2     1    1
     9     7     6    1
    10     1     6    1
    11     6     9    1
    12     6     8    1
