@<TRIPOS>MOLECULE
1
 13 12 0 0 0
SMALL
GASTEIGER

@<TRIPOS>ATOM
      1 P           5.7054   11.8145    9.4796 P.3     1  UNL1       -0.1154
      2 C           5.2104   13.5611    9.7582 C.3     1  UNL1       -0.0447
      3 H           5.7380   14.2273    9.0762 H       1  UNL1        0.0277
      4 H           5.4254   13.8320   10.7894 H       1  UNL1        0.0277
      5 H           4.1359   13.6521    9.6159 H       1  UNL1        0.0277
      6 C           7.5366   12.0048    9.4866 C.3     1  UNL1       -0.0447
      7 H           7.8300   12.7993    8.8004 H       1  UNL1        0.0277
      8 H           7.9804   11.0632    9.1676 H       1  UNL1        0.0277
      9 H           7.8975   12.2452   10.4834 H       1  UNL1        0.0277
     10 C           5.5051   11.7250    7.6516 C.3     1  UNL1       -0.0447
     11 H           6.0316   12.5548    7.1799 H       1  UNL1        0.0277
     12 H           4.4550   11.7672    7.3742 H       1  UNL1        0.0277
     13 H           5.9245   10.7820    7.3052 H       1  UNL1        0.0277
@<TRIPOS>BOND
     1    11    10    1
     2    13    10    1
     3    12    10    1
     4    10     1    1
     5     7     6    1
     6     3     2    1
     7     8     6    1
     8     1     6    1
     9     1     2    1
    10     6     9    1
    11     5     2    1
    12     2     4    1
