@<TRIPOS>MOLECULE
1
 13 12 0 0 0
SMALL
GASTEIGER

@<TRIPOS>ATOM
      1 P           2.8933    4.6972    6.7998 P.3     1  UNL1       -0.1154
      2 C           1.3722    3.6821    6.7116 C.3     1  UNL1       -0.0447
      3 H           0.6428    4.0540    7.4314 H       1  UNL1        0.0277
      4 H           1.6036    2.6416    6.9290 H       1  UNL1        0.0277
      5 H           0.9677    3.7486    5.7028 H       1  UNL1        0.0277
      6 C           3.2728    4.5107    8.5875 C.3     1  UNL1       -0.0447
      7 H           2.4109    4.7959    9.1901 H       1  UNL1        0.0277
      8 H           4.1336    5.1157    8.8615 H       1  UNL1        0.0277
      9 H           3.5184    3.4660    8.7723 H       1  UNL1        0.0277
     10 C           2.0927    6.3480    6.7376 C.3     1  UNL1       -0.0447
     11 H           1.3335    6.4273    7.5152 H       1  UNL1        0.0277
     12 H           1.6338    6.4441    5.7541 H       1  UNL1        0.0277
     13 H           2.8198    7.1469    6.8558 H       1  UNL1        0.0277
@<TRIPOS>BOND
     1     5     2    1
     2    12    10    1
     3     2     1    1
     4     2     4    1
     5     2     3    1
     6    10     1    1
     7    10    13    1
     8    10    11    1
     9     1     6    1
    10     6     9    1
    11     6     8    1
    12     6     7    1
