@<TRIPOS>MOLECULE
1
 13 12 0 0 0
SMALL
GASTEIGER

@<TRIPOS>ATOM
      1 P           5.7223    6.2872    5.6729 P.3     1  UNL1       -0.1154
      2 C           5.2193    7.7674    4.7092 C.3     1  UNL1       -0.0447
      3 H           5.8221    8.6326    4.9837 H       1  UNL1        0.0277
      4 H           4.1659    7.9703    4.8896 H       1  UNL1        0.0277
      5 H           5.3311    7.5552    3.6481 H       1  UNL1        0.0277
      6 C           7.5409    6.3326    5.3911 C.3     1  UNL1       -0.0447
      7 H           7.9290    7.3235    5.6268 H       1  UNL1        0.0277
      8 H           7.7783    6.0946    4.3571 H       1  UNL1        0.0277
      9 H           8.0068    5.5932    6.0405 H       1  UNL1        0.0277
     10 C           5.7489    7.0078    7.3664 C.3     1  UNL1       -0.0447
     11 H           6.3438    7.9212    7.3723 H       1  UNL1        0.0277
     12 H           6.1921    6.2784    8.0424 H       1  UNL1        0.0277
     13 H           4.7421    7.2370    7.7061 H       1  UNL1        0.0277
@<TRIPOS>BOND
     1     5     2    1
     2     8     6    1
     3     2     4    1
     4     2     3    1
     5     2     1    1
     6     6     7    1
     7     6     1    1
     8     6     9    1
     9     1    10    1
    10    10    11    1
    11    10    13    1
    12    10    12    1
