@<TRIPOS>MOLECULE
1
 34 36 0 0 0
SMALL
GASTEIGER

@<TRIPOS>ATOM
      1 P           6.9623   -1.1833    3.8873 P.3     1  UNL1       -0.0131
      2 C           6.9072   -1.9047    5.5597 C.ar    1  UNL1       -0.0147
      3 C           6.2313   -1.2277    6.5656 C.ar    1  UNL1       -0.0535
      4 H           5.7500   -0.2858    6.3472 H       1  UNL1        0.0624
      5 C           6.1967   -1.7398    7.8502 C.ar    1  UNL1       -0.0611
      6 H           5.6867   -1.1927    8.6283 H       1  UNL1        0.0618
      7 C           6.8326   -2.9351    8.1352 C.ar    1  UNL1       -0.0617
      8 H           6.8170   -3.3320    9.1399 H       1  UNL1        0.0618
      9 C           7.4977   -3.6229    7.1317 C.ar    1  UNL1       -0.0611
     10 H           7.9937   -4.5572    7.3533 H       1  UNL1        0.0618
     11 C           7.5384   -3.1128    5.8486 C.ar    1  UNL1       -0.0535
     12 H           8.0644   -3.6461    5.0680 H       1  UNL1        0.0624
     13 C           8.6451   -1.6950    3.3886 C.ar    1  UNL1       -0.0147
     14 C           9.6852   -1.3816    4.2628 C.ar    1  UNL1       -0.0535
     15 H           9.4651   -0.8996    5.2050 H       1  UNL1        0.0624
     16 C          10.9885   -1.7093    3.9388 C.ar    1  UNL1       -0.0611
     17 H          11.7855   -1.4728    4.6278 H       1  UNL1        0.0618
     18 C          11.2726   -2.3400    2.7375 C.ar    1  UNL1       -0.0617
     19 H          12.2919   -2.5916    2.4837 H       1  UNL1        0.0618
     20 C          10.2431   -2.6527    1.8666 C.ar    1  UNL1       -0.0611
     21 H          10.4573   -3.1521    0.9326 H       1  UNL1        0.0618
     22 C           8.9349   -2.3333    2.1881 C.ar    1  UNL1       -0.0535
     23 H           8.1408   -2.5973    1.5060 H       1  UNL1        0.0624
     24 C           5.9078   -2.3262    2.9253 C.ar    1  UNL1       -0.0147
     25 C           5.2097   -3.3798    3.5020 C.ar    1  UNL1       -0.0535
     26 H           5.2933   -3.5666    4.5627 H       1  UNL1        0.0624
     27 C           4.4025   -4.1902    2.7212 C.ar    1  UNL1       -0.0611
     28 H           3.8638   -5.0074    3.1785 H       1  UNL1        0.0618
     29 C           4.2816   -3.9567    1.3623 C.ar    1  UNL1       -0.0617
     30 H           3.6522   -4.5921    0.7567 H       1  UNL1        0.0618
     31 C           4.9612   -2.8968    0.7827 C.ar    1  UNL1       -0.0611
     32 H           4.8598   -2.7027   -0.2756 H       1  UNL1        0.0618
     33 C           5.7608   -2.0815    1.5608 C.ar    1  UNL1       -0.0535
     34 H           6.2701   -1.2355    1.1186 H       1  UNL1        0.0624
@<TRIPOS>BOND
     1    32    31    1
     2    30    29    1
     3    31    29   ar
     4    31    33   ar
     5    21    20    1
     6    34    33    1
     7    29    27   ar
     8    23    22    1
     9    33    24   ar
    10    20    22   ar
    11    20    18   ar
    12    22    13   ar
    13    19    18    1
    14    27    28    1
    15    27    25   ar
    16    18    16   ar
    17    24    25   ar
    18    24     1    1
    19    13     1    1
    20    13    14   ar
    21    25    26    1
    22     1     2    1
    23    16    14   ar
    24    16    17    1
    25    14    15    1
    26    12    11    1
    27     2    11   ar
    28     2     3   ar
    29    11     9   ar
    30     4     3    1
    31     3     5   ar
    32     9    10    1
    33     9     7   ar
    34     5     7   ar
    35     5     6    1
    36     7     8    1
