@<TRIPOS>MOLECULE
1
 57 59 0 0 0
SMALL
GASTEIGER

@<TRIPOS>ATOM
      1 P          -0.4937    1.9979    3.5606 P.3     1  UNL1       -0.0664
      2 N          -1.4196    0.4775    5.9612 N.pl3   1  UNL1       -0.3355
      3 C          -1.8695    0.7828    3.5734 C.ar    1  UNL1       -0.0017
      4 C          -2.1893    0.1690    4.7868 C.ar    1  UNL1        0.0369
      5 C          -3.2409   -0.7413    4.8282 C.ar    1  UNL1       -0.0398
      6 H          -3.5101   -1.2118    5.7628 H       1  UNL1        0.0636
      7 C          -3.9513   -1.0575    3.6889 C.ar    1  UNL1       -0.0571
      8 H          -4.7663   -1.7649    3.7427 H       1  UNL1        0.0621
      9 C          -3.6198   -0.4838    2.4667 C.ar    1  UNL1       -0.0497
     10 C          -2.5783    0.4284    2.4286 C.ar    1  UNL1       -0.0494
     11 H          -2.3078    0.8621    1.4778 H       1  UNL1        0.0627
     12 C          -4.3856   -0.8404    1.2293 C.3     1  UNL1       -0.0397
     13 H          -3.8931   -0.4573    0.3391 H       1  UNL1        0.0278
     14 H          -5.3894   -0.4176    1.2756 H       1  UNL1        0.0278
     15 H          -4.4849   -1.9206    1.1386 H       1  UNL1        0.0278
     16 C          -1.2742    3.5891    2.9795 C.3     1  UNL1       -0.0162
     17 H          -0.4156    4.2719    2.9050 H       1  UNL1        0.0352
     18 C          -2.1822    4.1169    4.0906 C.3     1  UNL1       -0.0460
     19 H          -1.6312    4.1110    5.0377 H       1  UNL1        0.0271
     20 H          -3.0561    3.4651    4.1862 H       1  UNL1        0.0271
     21 C          -2.6357    5.5373    3.7695 C.3     1  UNL1       -0.0525
     22 H          -3.3008    5.8996    4.5550 H       1  UNL1        0.0265
     23 H          -1.7616    6.1907    3.7444 H       1  UNL1        0.0265
     24 C          -3.3481    5.5850    2.4204 C.3     1  UNL1       -0.0530
     25 H          -4.2634    4.9898    2.4714 H       1  UNL1        0.0265
     26 H          -3.6315    6.6124    2.1835 H       1  UNL1        0.0265
     27 C          -2.4476    5.0297    1.3213 C.3     1  UNL1       -0.0525
     28 H          -1.5592    5.6584    1.2274 H       1  UNL1        0.0265
     29 H          -2.9735    5.0469    0.3638 H       1  UNL1        0.0265
     30 C          -2.0242    3.5983    1.6508 C.3     1  UNL1       -0.0460
     31 H          -1.3984    3.2114    0.8431 H       1  UNL1        0.0271
     32 H          -2.9213    2.9803    1.7263 H       1  UNL1        0.0271
     33 C           0.4751    1.3855    2.0926 C.3     1  UNL1       -0.0162
     34 H          -0.1788    1.2232    1.2280 H       1  UNL1        0.0352
     35 C           1.5670    2.3857    1.7204 C.3     1  UNL1       -0.0460
     36 H           1.1226    3.3282    1.3934 H       1  UNL1        0.0271
     37 H           2.1775    2.5989    2.6016 H       1  UNL1        0.0271
     38 C           2.4506    1.8295    0.6062 C.3     1  UNL1       -0.0525
     39 H           1.8501    1.6854   -0.2966 H       1  UNL1        0.0265
     40 H           3.2374    2.5486    0.3721 H       1  UNL1        0.0265
     41 C           3.0703    0.4979    1.0185 C.3     1  UNL1       -0.0530
     42 H           3.7222    0.6559    1.8788 H       1  UNL1        0.0265
     43 H           3.6797    0.1026    0.2031 H       1  UNL1        0.0265
     44 C           1.9807   -0.5051    1.3849 C.3     1  UNL1       -0.0525
     45 H           1.3641   -0.7119    0.5058 H       1  UNL1        0.0265
     46 H           2.4315   -1.4476    1.7039 H       1  UNL1        0.0265
     47 C           1.0998    0.0497    2.4994 C.3     1  UNL1       -0.0460
     48 H           1.7073    0.1995    3.3988 H       1  UNL1        0.0271
     49 H           0.3115   -0.6704    2.7441 H       1  UNL1        0.0271
     50 C          -2.2140    1.2461    6.9158 C.3     1  UNL1        0.0004
     51 H          -2.6020    2.1341    6.4223 H       1  UNL1        0.0428
     52 H          -1.5693    1.5628    7.7329 H       1  UNL1        0.0428
     53 H          -3.0544    0.6656    7.3195 H       1  UNL1        0.0428
     54 C          -0.8804   -0.7245    6.5849 C.3     1  UNL1        0.0004
     55 H          -1.6567   -1.3865    6.9913 H       1  UNL1        0.0428
     56 H          -0.2242   -0.4255    7.4006 H       1  UNL1        0.0428
     57 H          -0.2999   -1.2831    5.8507 H       1  UNL1        0.0428
@<TRIPOS>BOND
     1    39    38    1
     2    43    41    1
     3    13    12    1
     4    29    27    1
     5    40    38    1
     6    45    44    1
     7    38    41    1
     8    38    35    1
     9    31    30    1
    10    41    44    1
    11    41    42    1
    12    15    12    1
    13    28    27    1
    14    34    33    1
    15    12    14    1
    16    12     9    1
    17    27    30    1
    18    27    24    1
    19    44    46    1
    20    44    47    1
    21    36    35    1
    22    11    10    1
    23    30    32    1
    24    30    16    1
    25    35    33    1
    26    35    37    1
    27    33    47    1
    28    33     1    1
    29    26    24    1
    30    24    25    1
    31    24    21    1
    32    10     9   ar
    33    10     3   ar
    34     9     7   ar
    35    47    49    1
    36    47    48    1
    37    17    16    1
    38    16     1    1
    39    16    18    1
    40     1     3    1
    41     3     4   ar
    42     7     8    1
    43     7     5   ar
    44    23    21    1
    45    21    18    1
    46    21    22    1
    47    18    20    1
    48    18    19    1
    49     4     5   ar
    50     4     2    1
    51     5     6    1
    52    57    54    1
    53     2    54    1
    54     2    50    1
    55    51    50    1
    56    54    55    1
    57    54    56    1
    58    50    53    1
    59    50    52    1
