@<TRIPOS>MOLECULE
1
 52 54 0 0 0
SMALL
GASTEIGER

@<TRIPOS>ATOM
      1 P          10.0308    1.9163   14.7949 P.3     1  UNL1       -0.0964
      2 C           8.6150    1.0739   15.7142 C.3     1  UNL1       -0.0200
      3 C           8.0521   -0.1269   14.9532 C.3     1  UNL1       -0.0463
      4 C           7.2534   -1.0182   15.9018 C.3     1  UNL1       -0.0525
      5 C           6.1118   -0.2365   16.5454 C.3     1  UNL1       -0.0530
      6 C           6.6441    1.0173   17.2324 C.3     1  UNL1       -0.0525
      7 C           7.4213    1.8797   16.2362 C.3     1  UNL1       -0.0463
      8 C           9.2458    2.6739   13.2498 C.3     1  UNL1       -0.0200
      9 C           9.2590    1.6703   12.0937 C.3     1  UNL1       -0.0463
     10 C           8.9548    2.3709   10.7716 C.3     1  UNL1       -0.0525
     11 C           7.5985    3.0671   10.8274 C.3     1  UNL1       -0.0530
     12 C           7.5395    4.0170   12.0193 C.3     1  UNL1       -0.0525
     13 C           7.8371    3.2641   13.3171 C.3     1  UNL1       -0.0463
     14 C          10.4013    3.4009   15.9230 C.3     1  UNL1       -0.0200
     15 C          10.3991    3.0123   17.4056 C.3     1  UNL1       -0.0463
     16 C          10.9975    4.1278   18.2614 C.3     1  UNL1       -0.0525
     17 C          10.2400    5.4342   18.0495 C.3     1  UNL1       -0.0530
     18 C          10.2614    5.8137   16.5734 C.3     1  UNL1       -0.0525
     19 C           9.6332    4.7076   15.7247 C.3     1  UNL1       -0.0463
     20 H           9.1563    0.6754   16.5861 H       1  UNL1        0.0349
     21 H           8.8668   -0.7025   14.5115 H       1  UNL1        0.0271
     22 H           7.3964    0.2132   14.1484 H       1  UNL1        0.0271
     23 H           7.9177   -1.3990   16.6810 H       1  UNL1        0.0265
     24 H           6.8550   -1.8766   15.3562 H       1  UNL1        0.0265
     25 H           5.5882   -0.8656   17.2683 H       1  UNL1        0.0265
     26 H           5.3924    0.0537   15.7752 H       1  UNL1        0.0265
     27 H           7.2981    0.7306   18.0595 H       1  UNL1        0.0265
     28 H           5.8130    1.5932   17.6472 H       1  UNL1        0.0265
     29 H           7.7238    2.8049   16.7216 H       1  UNL1        0.0271
     30 H           6.7480    2.1402   15.4216 H       1  UNL1        0.0271
     31 H           9.9417    3.4862   12.9930 H       1  UNL1        0.0349
     32 H          10.2267    1.1702   12.0334 H       1  UNL1        0.0271
     33 H           8.5099    0.8972   12.2712 H       1  UNL1        0.0271
     34 H           9.7311    3.1105   10.5604 H       1  UNL1        0.0265
     35 H           8.9647    1.6406    9.9595 H       1  UNL1        0.0265
     36 H           6.8106    2.3167   10.9266 H       1  UNL1        0.0265
     37 H           7.4201    3.6166    9.9005 H       1  UNL1        0.0265
     38 H           8.2675    4.8215   11.8841 H       1  UNL1        0.0265
     39 H           6.5493    4.4748   12.0811 H       1  UNL1        0.0265
     40 H           7.7123    3.9374   14.1617 H       1  UNL1        0.0271
     41 H           7.1110    2.4560   13.4094 H       1  UNL1        0.0271
     42 H          11.4500    3.6035   15.6665 H       1  UNL1        0.0349
     43 H          10.9779    2.0954   17.5423 H       1  UNL1        0.0271
     44 H           9.3874    2.8225   17.7604 H       1  UNL1        0.0271
     45 H          10.9551    3.8379   19.3139 H       1  UNL1        0.0265
     46 H          12.0457    4.2760   18.0001 H       1  UNL1        0.0265
     47 H          10.6909    6.2293   18.6471 H       1  UNL1        0.0265
     48 H           9.2047    5.3161   18.3789 H       1  UNL1        0.0265
     49 H          11.2940    5.9762   16.2547 H       1  UNL1        0.0265
     50 H           9.7140    6.7466   16.4182 H       1  UNL1        0.0265
     51 H           8.5912    4.5957   16.0272 H       1  UNL1        0.0271
     52 H           9.6546    5.0155   14.6780 H       1  UNL1        0.0271
@<TRIPOS>BOND
     1    37    11    1
     2    35    10    1
     3    34    10    1
     4    10    11    1
     5    10     9    1
     6    11    36    1
     7    11    12    1
     8    38    12    1
     9    12    39    1
    10    12    13    1
    11    32     9    1
    12     9    33    1
    13     9     8    1
    14    31     8    1
    15     8    13    1
    16     8     1    1
    17    13    41    1
    18    13    40    1
    19    22     3    1
    20    21     3    1
    21    52    19    1
    22     1     2    1
    23     1    14    1
    24     3     2    1
    25     3     4    1
    26    24     4    1
    27    30     7    1
    28    42    14    1
    29     2     7    1
    30     2    20    1
    31    19    14    1
    32    19    51    1
    33    19    18    1
    34    26     5    1
    35     4     5    1
    36     4    23    1
    37    14    15    1
    38     7    29    1
    39     7     6    1
    40    49    18    1
    41    50    18    1
    42     5     6    1
    43     5    25    1
    44    18    17    1
    45     6    28    1
    46     6    27    1
    47    15    43    1
    48    15    44    1
    49    15    16    1
    50    46    16    1
    51    17    16    1
    52    17    48    1
    53    17    47    1
    54    16    45    1
