@<TRIPOS>MOLECULE
1
 34 36 0 0 0
SMALL
GASTEIGER

@<TRIPOS>ATOM
      1 P           3.7093    2.1027    4.3918 P.3     1  UNL1       -0.0131
      2 C           2.3584    1.0710    5.0777 C.ar    1  UNL1       -0.0147
      3 C           1.1664    1.7247    5.3894 C.ar    1  UNL1       -0.0535
      4 C           0.0888    1.0225    5.8978 C.ar    1  UNL1       -0.0611
      5 C           0.2021   -0.3364    6.1453 C.ar    1  UNL1       -0.0617
      6 C           1.3963   -0.9844    5.8798 C.ar    1  UNL1       -0.0611
      7 C           2.4668   -0.2896    5.3429 C.ar    1  UNL1       -0.0535
      8 C           4.8100    0.8172    3.6602 C.ar    1  UNL1       -0.0147
      9 C           4.2549   -0.1643    2.8400 C.ar    1  UNL1       -0.0535
     10 C           5.0619   -1.1062    2.2328 C.ar    1  UNL1       -0.0611
     11 C           6.4355   -1.0732    2.4196 C.ar    1  UNL1       -0.0617
     12 C           6.9968   -0.0849    3.2078 C.ar    1  UNL1       -0.0611
     13 C           6.1873    0.8560    3.8219 C.ar    1  UNL1       -0.0535
     14 C           2.9819    2.5252    2.7490 C.ar    1  UNL1       -0.0147
     15 C           1.6536    2.3705    2.3770 C.ar    1  UNL1       -0.0535
     16 C           1.2466    2.6841    1.0901 C.ar    1  UNL1       -0.0611
     17 C           2.1585    3.1395    0.1559 C.ar    1  UNL1       -0.0617
     18 C           3.4902    3.2796    0.5131 C.ar    1  UNL1       -0.0611
     19 C           3.8950    2.9765    1.7971 C.ar    1  UNL1       -0.0535
     20 H           1.0992    2.7958    5.2382 H       1  UNL1        0.0624
     21 H          -0.8418    1.5327    6.1044 H       1  UNL1        0.0618
     22 H          -0.6356   -0.8853    6.5500 H       1  UNL1        0.0618
     23 H           1.4957   -2.0404    6.0863 H       1  UNL1        0.0618
     24 H           3.3873   -0.8142    5.1311 H       1  UNL1        0.0624
     25 H           3.1859   -0.1833    2.6740 H       1  UNL1        0.0624
     26 H           4.6198   -1.8659    1.6045 H       1  UNL1        0.0618
     27 H           7.0645   -1.8097    1.9416 H       1  UNL1        0.0618
     28 H           8.0681   -0.0407    3.3421 H       1  UNL1        0.0618
     29 H           6.6307    1.6390    4.4229 H       1  UNL1        0.0624
     30 H           0.9218    1.9990    3.0790 H       1  UNL1        0.0624
     31 H           0.2074    2.5647    0.8185 H       1  UNL1        0.0618
     32 H           1.8358    3.3803   -0.8461 H       1  UNL1        0.0618
     33 H           4.2123    3.6264   -0.2120 H       1  UNL1        0.0618
     34 H           4.9356    3.0923    2.0765 H       1  UNL1        0.0624
@<TRIPOS>BOND
     1    32    17    1
     2    33    18    1
     3    17    18   ar
     4    17    16   ar
     5    18    19   ar
     6    31    16    1
     7    16    15   ar
     8    26    10    1
     9    19    34    1
    10    19    14   ar
    11    27    11    1
    12    10    11   ar
    13    10     9   ar
    14    15    14   ar
    15    15    30    1
    16    11    12   ar
    17    25     9    1
    18    14     1    1
    19     9     8   ar
    20    12    28    1
    21    12    13   ar
    22     8    13   ar
    23     8     1    1
    24    13    29    1
    25     1     2    1
    26     2     7   ar
    27     2     3   ar
    28    24     7    1
    29    20     3    1
    30     7     6   ar
    31     3     4   ar
    32     6    23    1
    33     6     5   ar
    34     4    21    1
    35     4     5   ar
    36     5    22    1
