@<TRIPOS>MOLECULE
1
 52 54 0 0 0
SMALL
GASTEIGER

@<TRIPOS>ATOM
      1 P          13.7944    2.0094   13.9866 P.3     1  UNL1       -0.0964
      2 C          15.0543    1.0596   12.9140 C.3     1  UNL1       -0.0200
      3 C          15.9983    0.2123   13.7736 C.3     1  UNL1       -0.0463
      4 C          16.7497   -0.8092   12.9226 C.3     1  UNL1       -0.0525
      5 C          17.5582   -0.1071   11.8388 C.3     1  UNL1       -0.0530
      6 C          16.6354    0.7622   10.9942 C.3     1  UNL1       -0.0525
      7 C          15.9008    1.7869   11.8617 C.3     1  UNL1       -0.0463
      8 C          14.9059    2.6474   15.3675 C.3     1  UNL1       -0.0200
      9 C          16.0188    3.6151   14.9663 C.3     1  UNL1       -0.0463
     10 C          16.9777    3.8206   16.1394 C.3     1  UNL1       -0.0525
     11 C          16.2372    4.3641   17.3564 C.3     1  UNL1       -0.0530
     12 C          15.0972    3.4260   17.7395 C.3     1  UNL1       -0.0525
     13 C          14.1496    3.2302   16.5587 C.3     1  UNL1       -0.0463
     14 C          13.5660    3.5153   12.8798 C.3     1  UNL1       -0.0200
     15 C          12.8479    4.6961   13.5244 C.3     1  UNL1       -0.0463
     16 C          12.7833    5.8741   12.5531 C.3     1  UNL1       -0.0525
     17 C          12.0554    5.4815   11.2719 C.3     1  UNL1       -0.0530
     18 C          12.7271    4.2701   10.6331 C.3     1  UNL1       -0.0525
     19 C          12.7896    3.1131   11.6264 C.3     1  UNL1       -0.0463
     20 H          14.3945    0.3651   12.3753 H       1  UNL1        0.0349
     21 H          16.7346    0.8529   14.2640 H       1  UNL1        0.0271
     22 H          15.4262   -0.3142   14.5424 H       1  UNL1        0.0271
     23 H          17.4103   -1.4006   13.5611 H       1  UNL1        0.0265
     24 H          16.0380   -1.4912   12.4546 H       1  UNL1        0.0265
     25 H          18.3264    0.5183   12.3011 H       1  UNL1        0.0265
     26 H          18.0618   -0.8427   11.2081 H       1  UNL1        0.0265
     27 H          17.2124    1.2856   10.2277 H       1  UNL1        0.0265
     28 H          15.9049    0.1274   10.4873 H       1  UNL1        0.0265
     29 H          16.6467    2.4290   12.3338 H       1  UNL1        0.0271
     30 H          15.2938    2.4050   11.2031 H       1  UNL1        0.0271
     31 H          15.3621    1.7172   15.7321 H       1  UNL1        0.0349
     32 H          16.5811    3.2342   14.1153 H       1  UNL1        0.0271
     33 H          15.5951    4.5810   14.6841 H       1  UNL1        0.0271
     34 H          17.7722    4.5117   15.8471 H       1  UNL1        0.0265
     35 H          17.4436    2.8664   16.3979 H       1  UNL1        0.0265
     36 H          16.9283    4.4772   18.1943 H       1  UNL1        0.0265
     37 H          15.8320    5.3524   17.1233 H       1  UNL1        0.0265
     38 H          15.5071    2.4587   18.0390 H       1  UNL1        0.0265
     39 H          14.5491    3.8335   18.5926 H       1  UNL1        0.0265
     40 H          13.7110    4.1960   16.2982 H       1  UNL1        0.0271
     41 H          13.3469    2.5481   16.8434 H       1  UNL1        0.0271
     42 H          14.5741    3.8434   12.6034 H       1  UNL1        0.0349
     43 H          13.3586    5.0145   14.4341 H       1  UNL1        0.0271
     44 H          11.8330    4.3970   13.7890 H       1  UNL1        0.0271
     45 H          13.7982    6.1978   12.3072 H       1  UNL1        0.0265
     46 H          12.2723    6.7149   13.0291 H       1  UNL1        0.0265
     47 H          12.0490    6.3209   10.5730 H       1  UNL1        0.0265
     48 H          11.0158    5.2380   11.5063 H       1  UNL1        0.0265
     49 H          13.7391    4.5410   10.3199 H       1  UNL1        0.0265
     50 H          12.1754    3.9636    9.7411 H       1  UNL1        0.0265
     51 H          13.2309    2.2352   11.1512 H       1  UNL1        0.0271
     52 H          11.7778    2.8372   11.9239 H       1  UNL1        0.0271
@<TRIPOS>BOND
     1    50    18    1
     2    27     6    1
     3    49    18    1
     4    28     6    1
     5    47    17    1
     6    18    17    1
     7    18    19    1
     8     6     5    1
     9     6     7    1
    10    51    19    1
    11    30     7    1
    12    26     5    1
    13    17    48    1
    14    17    16    1
    15    19    52    1
    16    19    14    1
    17     5    25    1
    18     5     4    1
    19     7    29    1
    20     7     2    1
    21    45    16    1
    22    20     2    1
    23    24     4    1
    24    16    46    1
    25    16    15    1
    26    42    14    1
    27    14    15    1
    28    14     1    1
    29     2     3    1
    30     2     1    1
    31     4    23    1
    32     4     3    1
    33    15    44    1
    34    15    43    1
    35     3    21    1
    36     3    22    1
    37     1     8    1
    38    32     9    1
    39    33     9    1
    40     9     8    1
    41     9    10    1
    42     8    31    1
    43     8    13    1
    44    34    10    1
    45    10    35    1
    46    10    11    1
    47    40    13    1
    48    13    41    1
    49    13    12    1
    50    37    11    1
    51    11    12    1
    52    11    36    1
    53    12    38    1
    54    12    39    1
