@<TRIPOS>MOLECULE
1
 52 54 0 0 0
SMALL
GASTEIGER

@<TRIPOS>ATOM
      1 P           4.4641    3.0769    7.8576 P.3     1  UNL1       -0.0964
      2 C           5.1667    4.2220    9.1814 C.3     1  UNL1       -0.0200
      3 C           4.5839    5.6372    9.2227 C.3     1  UNL1       -0.0463
      4 C           5.4758    6.5409   10.0724 C.3     1  UNL1       -0.0525
      5 C           5.5754    6.0045   11.4967 C.3     1  UNL1       -0.0530
      6 C           6.0923    4.5702   11.4815 C.3     1  UNL1       -0.0525
      7 C           5.2011    3.6818   10.6127 C.3     1  UNL1       -0.0463
      8 C           2.7652    2.5151    8.4494 C.3     1  UNL1       -0.0200
      9 C           2.6381    1.5306    9.6131 C.3     1  UNL1       -0.0463
     10 C           1.1793    1.0836    9.7309 C.3     1  UNL1       -0.0525
     11 C           0.2547    2.2739    9.9644 C.3     1  UNL1       -0.0530
     12 C           0.4127    3.2966    8.8437 C.3     1  UNL1       -0.0525
     13 C           1.8722    3.7243    8.7287 C.3     1  UNL1       -0.0463
     14 C           5.4844    1.5409    8.2066 C.3     1  UNL1       -0.0200
     15 C           5.0274    0.4215    7.2764 C.3     1  UNL1       -0.0463
     16 C           5.8270   -0.8592    7.4909 C.3     1  UNL1       -0.0525
     17 C           7.3151   -0.5948    7.2975 C.3     1  UNL1       -0.0530
     18 C           7.7744    0.4922    8.2622 C.3     1  UNL1       -0.0525
     19 C           6.9847    1.7822    8.0489 C.3     1  UNL1       -0.0463
     20 H           6.2014    4.3312    8.8245 H       1  UNL1        0.0349
     21 H           3.5856    5.6327    9.6594 H       1  UNL1        0.0271
     22 H           4.5055    6.0438    8.2118 H       1  UNL1        0.0271
     23 H           5.0664    7.5534   10.0833 H       1  UNL1        0.0265
     24 H           6.4751    6.5888    9.6349 H       1  UNL1        0.0265
     25 H           6.2409    6.6348   12.0901 H       1  UNL1        0.0265
     26 H           4.5880    6.0292   11.9646 H       1  UNL1        0.0265
     27 H           6.1226    4.1737   12.4993 H       1  UNL1        0.0265
     28 H           7.1117    4.5564   11.0880 H       1  UNL1        0.0265
     29 H           4.1933    3.6864   11.0318 H       1  UNL1        0.0271
     30 H           5.5816    2.6613   10.6515 H       1  UNL1        0.0271
     31 H           2.3665    2.0143    7.5546 H       1  UNL1        0.0349
     32 H           2.9429    1.9995   10.5491 H       1  UNL1        0.0271
     33 H           3.2549    0.6448    9.4612 H       1  UNL1        0.0271
     34 H           1.0823    0.3716   10.5541 H       1  UNL1        0.0265
     35 H           0.8864    0.5724    8.8099 H       1  UNL1        0.0265
     36 H           0.5018    2.7421   10.9207 H       1  UNL1        0.0265
     37 H          -0.7816    1.9336   10.0191 H       1  UNL1        0.0265
     38 H          -0.2136    4.1693    9.0426 H       1  UNL1        0.0265
     39 H           0.0871    2.8560    7.9006 H       1  UNL1        0.0265
     40 H           2.1673    4.1828    9.6739 H       1  UNL1        0.0271
     41 H           1.9887    4.4651    7.9326 H       1  UNL1        0.0271
     42 H           5.2874    1.2376    9.2405 H       1  UNL1        0.0349
     43 H           3.9654    0.2162    7.4288 H       1  UNL1        0.0271
     44 H           5.1564    0.7517    6.2415 H       1  UNL1        0.0271
     45 H           5.6528   -1.2349    8.5032 H       1  UNL1        0.0265
     46 H           5.4877   -1.6245    6.7887 H       1  UNL1        0.0265
     47 H           7.8848   -1.5112    7.4661 H       1  UNL1        0.0265
     48 H           7.4926   -0.2719    6.2695 H       1  UNL1        0.0265
     49 H           7.6326    0.1450    9.2896 H       1  UNL1        0.0265
     50 H           8.8391    0.6914    8.1227 H       1  UNL1        0.0265
     51 H           7.3281    2.5249    8.7712 H       1  UNL1        0.0271
     52 H           7.1861    2.1714    7.0481 H       1  UNL1        0.0271
@<TRIPOS>BOND
     1    44    15    1
     2    48    17    1
     3    46    16    1
     4    52    19    1
     5    15    43    1
     6    15    16    1
     7    15    14    1
     8    17    47    1
     9    17    16    1
    10    17    18    1
    11    16    45    1
    12    31     8    1
    13     1    14    1
    14     1     8    1
    15     1     2    1
    16    39    12    1
    17    41    13    1
    18    19    14    1
    19    19    18    1
    20    19    51    1
    21    50    18    1
    22    14    42    1
    23    22     3    1
    24    18    49    1
    25     8    13    1
    26     8     9    1
    27    13    12    1
    28    13    40    1
    29    35    10    1
    30    20     2    1
    31    12    38    1
    32    12    11    1
    33     2     3    1
    34     2     7    1
    35     3    21    1
    36     3     4    1
    37    33     9    1
    38     9    10    1
    39     9    32    1
    40    24     4    1
    41    10    11    1
    42    10    34    1
    43    11    37    1
    44    11    36    1
    45     4    23    1
    46     4     5    1
    47     7    30    1
    48     7    29    1
    49     7     6    1
    50    28     6    1
    51     6     5    1
    52     6    27    1
    53     5    26    1
    54     5    25    1
