@<TRIPOS>MOLECULE
1
 52 54 0 0 0
SMALL
GASTEIGER

@<TRIPOS>ATOM
      1 P          12.8423    0.2708   14.0165 P.3     1  UNL1       -0.0964
      2 C          12.0198    1.9691   13.9408 C.3     1  UNL1       -0.0200
      3 C          11.6387    2.4811   15.3311 C.3     1  UNL1       -0.0463
      4 C          11.4028    3.9884   15.2888 C.3     1  UNL1       -0.0525
      5 C          10.2854    4.3171   14.3036 C.3     1  UNL1       -0.0530
      6 C          10.6069    3.7501   12.9247 C.3     1  UNL1       -0.0525
      7 C          10.8499    2.2399   12.9895 C.3     1  UNL1       -0.0463
      8 C          12.6050   -0.2759   12.2348 C.3     1  UNL1       -0.0200
      9 C          13.4108    0.6018   11.2802 C.3     1  UNL1       -0.0463
     10 C          13.1343    0.2141    9.8298 C.3     1  UNL1       -0.0525
     11 C          13.5001   -1.2463    9.5940 C.3     1  UNL1       -0.0530
     12 C          12.7337   -2.1428   10.5607 C.3     1  UNL1       -0.0525
     13 C          12.9875   -1.7353   12.0115 C.3     1  UNL1       -0.0463
     14 C          11.5711   -0.8669   14.8439 C.3     1  UNL1       -0.0200
     15 C          10.1408   -0.8149   14.3033 C.3     1  UNL1       -0.0463
     16 C           9.3209   -1.9698   14.8797 C.3     1  UNL1       -0.0525
     17 C           9.2777   -1.8889   16.4014 C.3     1  UNL1       -0.0530
     18 C          10.6957   -1.8894   16.9626 C.3     1  UNL1       -0.0525
     19 C          11.5087   -0.7407   16.3677 C.3     1  UNL1       -0.0463
     20 H          12.8583    2.5836   13.5973 H       1  UNL1        0.0349
     21 H          12.4343    2.2521   16.0448 H       1  UNL1        0.0271
     22 H          10.7176    2.0001   15.6669 H       1  UNL1        0.0271
     23 H          11.1407    4.3507   16.2853 H       1  UNL1        0.0265
     24 H          12.3229    4.4912   14.9839 H       1  UNL1        0.0265
     25 H          10.1487    5.3984   14.2376 H       1  UNL1        0.0265
     26 H           9.3476    3.8851   14.6629 H       1  UNL1        0.0265
     27 H          11.4990    4.2422   12.5310 H       1  UNL1        0.0265
     28 H           9.7819    3.9563   12.2384 H       1  UNL1        0.0265
     29 H           9.9385    1.7552   13.3390 H       1  UNL1        0.0271
     30 H          11.0543    1.8853   11.9803 H       1  UNL1        0.0271
     31 H          11.5425   -0.1580   11.9994 H       1  UNL1        0.0349
     32 H          14.4750    0.4843   11.4923 H       1  UNL1        0.0271
     33 H          13.1657    1.6532   11.4283 H       1  UNL1        0.0271
     34 H          13.7116    0.8560    9.1612 H       1  UNL1        0.0265
     35 H          12.0749    0.3658    9.6048 H       1  UNL1        0.0265
     36 H          14.5727   -1.3735    9.7494 H       1  UNL1        0.0265
     37 H          13.2736   -1.5309    8.5641 H       1  UNL1        0.0265
     38 H          13.0256   -3.1859   10.4137 H       1  UNL1        0.0265
     39 H          11.6635   -2.0685   10.3491 H       1  UNL1        0.0265
     40 H          14.0441   -1.8540   12.2513 H       1  UNL1        0.0271
     41 H          12.4121   -2.3941   12.6654 H       1  UNL1        0.0271
     42 H          11.9729   -1.8665   14.6237 H       1  UNL1        0.0349
     43 H           9.6690    0.1210   14.6027 H       1  UNL1        0.0271
     44 H          10.1195   -0.8797   13.2157 H       1  UNL1        0.0271
     45 H           9.7663   -2.9213   14.5781 H       1  UNL1        0.0265
     46 H           8.3067   -1.9343   14.4751 H       1  UNL1        0.0265
     47 H           8.7143   -2.7324   16.8060 H       1  UNL1        0.0265
     48 H           8.7663   -0.9715   16.7022 H       1  UNL1        0.0265
     49 H          10.6650   -1.7911   18.0502 H       1  UNL1        0.0265
     50 H          11.1705   -2.8437   16.7238 H       1  UNL1        0.0265
     51 H          12.5159   -0.7393   16.7899 H       1  UNL1        0.0271
     52 H          11.0377    0.1993   16.6521 H       1  UNL1        0.0271
@<TRIPOS>BOND
     1    37    11    1
     2    34    10    1
     3    11    36    1
     4    11    10    1
     5    11    12    1
     6    35    10    1
     7    10     9    1
     8    39    12    1
     9    38    12    1
    10    12    13    1
    11     9    33    1
    12     9    32    1
    13     9     8    1
    14    30     7    1
    15    31     8    1
    16    13     8    1
    17    13    40    1
    18    13    41    1
    19     8     1    1
    20    28     6    1
    21    27     6    1
    22     6     7    1
    23     6     5    1
    24     7    29    1
    25     7     2    1
    26    44    15    1
    27    20     2    1
    28     2     1    1
    29     2     3    1
    30     1    14    1
    31    25     5    1
    32    15    43    1
    33    15    14    1
    34    15    16    1
    35     5    26    1
    36     5     4    1
    37    46    16    1
    38    45    16    1
    39    42    14    1
    40    14    19    1
    41    16    17    1
    42    24     4    1
    43     4     3    1
    44     4    23    1
    45     3    22    1
    46     3    21    1
    47    19    52    1
    48    19    51    1
    49    19    18    1
    50    17    48    1
    51    17    47    1
    52    17    18    1
    53    50    18    1
    54    18    49    1
