@<TRIPOS>MOLECULE
1
 52 54 0 0 0
SMALL
GASTEIGER

@<TRIPOS>ATOM
      1 P          16.2039   -1.7401   15.0823 P.3     1  UNL1       -0.0964
      2 C          17.9611   -1.5684   15.7534 C.3     1  UNL1       -0.0200
      3 C          18.9067   -0.9639   14.7142 C.3     1  UNL1       -0.0463
      4 C          20.1685   -0.4374   15.3924 C.3     1  UNL1       -0.0525
      5 C          20.8795   -1.5699   16.1267 C.3     1  UNL1       -0.0530
      6 C          19.9331   -2.2359   17.1201 C.3     1  UNL1       -0.0525
      7 C          18.6699   -2.7494   16.4239 C.3     1  UNL1       -0.0463
      8 C          15.5315   -3.0176   16.2839 C.3     1  UNL1       -0.0200
      9 C          15.4423   -2.4465   17.6971 C.3     1  UNL1       -0.0463
     10 C          14.9996   -3.5238   18.6837 C.3     1  UNL1       -0.0525
     11 C          13.6368   -4.0772   18.2842 C.3     1  UNL1       -0.0530
     12 C          13.6857   -4.6188   16.8594 C.3     1  UNL1       -0.0525
     13 C          14.1609   -3.5490   15.8771 C.3     1  UNL1       -0.0463
     14 C          16.3591   -2.8376   13.5442 C.3     1  UNL1       -0.0200
     15 C          17.1748   -4.1236   13.6911 C.3     1  UNL1       -0.0463
     16 C          16.9728   -5.0148   12.4651 C.3     1  UNL1       -0.0525
     17 C          17.4136   -4.2907   11.1980 C.3     1  UNL1       -0.0530
     18 C          16.6473   -2.9801   11.0552 C.3     1  UNL1       -0.0525
     19 C          16.8455   -2.1048   12.2919 C.3     1  UNL1       -0.0463
     20 H          17.8108   -0.8068   16.5254 H       1  UNL1        0.0349
     21 H          19.2015   -1.7256   13.9895 H       1  UNL1        0.0271
     22 H          18.4044   -0.1509   14.1840 H       1  UNL1        0.0271
     23 H          19.9001    0.3499   16.0996 H       1  UNL1        0.0265
     24 H          20.8353   -0.0003   14.6458 H       1  UNL1        0.0265
     25 H          21.7573   -1.1860   16.6504 H       1  UNL1        0.0265
     26 H          21.2238   -2.3118   15.4011 H       1  UNL1        0.0265
     27 H          20.4405   -3.0692   17.6125 H       1  UNL1        0.0265
     28 H          19.6524   -1.5143   17.8904 H       1  UNL1        0.0265
     29 H          18.0417   -3.2289   17.1732 H       1  UNL1        0.0271
     30 H          18.9571   -3.5038   15.6916 H       1  UNL1        0.0271
     31 H          16.2371   -3.8545   16.2920 H       1  UNL1        0.0349
     32 H          16.4036   -2.0385   18.0084 H       1  UNL1        0.0271
     33 H          14.7235   -1.6257   17.7094 H       1  UNL1        0.0271
     34 H          15.7334   -4.3346   18.6971 H       1  UNL1        0.0265
     35 H          14.9507   -3.1029   19.6901 H       1  UNL1        0.0265
     36 H          13.3343   -4.8696   18.9723 H       1  UNL1        0.0265
     37 H          12.8966   -3.2777   18.3464 H       1  UNL1        0.0265
     38 H          14.3707   -5.4702   16.8212 H       1  UNL1        0.0265
     39 H          12.6971   -4.9792   16.5632 H       1  UNL1        0.0265
     40 H          14.1917   -3.9833   14.8756 H       1  UNL1        0.0271
     41 H          13.4581   -2.7159   15.8664 H       1  UNL1        0.0271
     42 H          15.3148   -3.1270   13.3575 H       1  UNL1        0.0349
     43 H          18.2347   -3.8804   13.7655 H       1  UNL1        0.0271
     44 H          16.8858   -4.6826   14.5808 H       1  UNL1        0.0271
     45 H          17.5458   -5.9371   12.5862 H       1  UNL1        0.0265
     46 H          15.9177   -5.2872   12.3803 H       1  UNL1        0.0265
     47 H          18.4849   -4.0831   11.2520 H       1  UNL1        0.0265
     48 H          17.2403   -4.9235   10.3249 H       1  UNL1        0.0265
     49 H          16.9911   -2.4434   10.1680 H       1  UNL1        0.0265
     50 H          15.5863   -3.2037   10.9238 H       1  UNL1        0.0265
     51 H          17.9043   -1.8647   12.3781 H       1  UNL1        0.0271
     52 H          16.3084   -1.1614   12.1724 H       1  UNL1        0.0271
@<TRIPOS>BOND
     1    49    18    1
     2    48    17    1
     3    50    18    1
     4    18    17    1
     5    18    19    1
     6    17    47    1
     7    17    16    1
     8    52    19    1
     9    19    51    1
    10    19    14    1
    11    46    16    1
    12    16    45    1
    13    16    15    1
    14    42    14    1
    15    14    15    1
    16    14     1    1
    17    15    43    1
    18    15    44    1
    19    21     3    1
    20    22     3    1
    21    24     4    1
    22     3     4    1
    23     3     2    1
    24    40    13    1
    25     1     2    1
    26     1     8    1
    27     4    23    1
    28     4     5    1
    29    26     5    1
    30    30     7    1
    31     2     7    1
    32     2    20    1
    33    41    13    1
    34    13     8    1
    35    13    12    1
    36     5    25    1
    37     5     6    1
    38     8    31    1
    39     8     9    1
    40     7     6    1
    41     7    29    1
    42    39    12    1
    43    38    12    1
    44    12    11    1
    45     6    27    1
    46     6    28    1
    47     9    33    1
    48     9    32    1
    49     9    10    1
    50    11    37    1
    51    11    10    1
    52    11    36    1
    53    10    34    1
    54    10    35    1
