@<TRIPOS>MOLECULE
1
 34 36 0 0 0
SMALL
GASTEIGER

@<TRIPOS>ATOM
      1 P           7.9188    4.9260    5.1300 P.3     1  UNL1       -0.0131
      2 C           7.4520    3.6789    6.4005 C.ar    1  UNL1       -0.0147
      3 C           6.4958    3.9061    7.3835 C.ar    1  UNL1       -0.0535
      4 H           6.0306    4.8752    7.4824 H       1  UNL1        0.0624
      5 C           6.1391    2.8965    8.2597 C.ar    1  UNL1       -0.0611
      6 H           5.3969    3.0917    9.0203 H       1  UNL1        0.0618
      7 C           6.7220    1.6455    8.1660 C.ar    1  UNL1       -0.0617
      8 H           6.4306    0.8578    8.8448 H       1  UNL1        0.0618
      9 C           7.6951    1.4167    7.2085 C.ar    1  UNL1       -0.0611
     10 H           8.1728    0.4502    7.1387 H       1  UNL1        0.0618
     11 C           8.0657    2.4289    6.3440 C.ar    1  UNL1       -0.0535
     12 H           8.8559    2.2503    5.6249 H       1  UNL1        0.0624
     13 C           7.0584    6.4117    5.7720 C.ar    1  UNL1       -0.0147
     14 C           5.6686    6.5244    5.7829 C.ar    1  UNL1       -0.0535
     15 H           5.0570    5.7205    5.3962 H       1  UNL1        0.0624
     16 C           5.0671    7.6642    6.2825 C.ar    1  UNL1       -0.0611
     17 H           3.9893    7.7429    6.2837 H       1  UNL1        0.0618
     18 C           5.8382    8.7027    6.7813 C.ar    1  UNL1       -0.0617
     19 H           5.3619    9.5920    7.1676 H       1  UNL1        0.0618
     20 C           7.2179    8.5962    6.7796 C.ar    1  UNL1       -0.0611
     21 H           7.8277    9.4007    7.1653 H       1  UNL1        0.0618
     22 C           7.8219    7.4574    6.2766 C.ar    1  UNL1       -0.0535
     23 H           8.9015    7.3843    6.2601 H       1  UNL1        0.0624
     24 C           6.7386    4.4126    3.8199 C.ar    1  UNL1       -0.0147
     25 C           6.1209    5.3663    3.0134 C.ar    1  UNL1       -0.0535
     26 H           6.2726    6.4175    3.2079 H       1  UNL1        0.0624
     27 C           5.3045    4.9790    1.9665 C.ar    1  UNL1       -0.0611
     28 H           4.8361    5.7337    1.3515 H       1  UNL1        0.0618
     29 C           5.0937    3.6353    1.7058 C.ar    1  UNL1       -0.0617
     30 H           4.4574    3.3343    0.8866 H       1  UNL1        0.0618
     31 C           5.7037    2.6805    2.5024 C.ar    1  UNL1       -0.0611
     32 H           5.5450    1.6298    2.3074 H       1  UNL1        0.0618
     33 C           6.5229    3.0639    3.5487 C.ar    1  UNL1       -0.0535
     34 H           6.9926    2.3058    4.1579 H       1  UNL1        0.0624
@<TRIPOS>BOND
     1    30    29    1
     2    28    27    1
     3    29    27   ar
     4    29    31   ar
     5    27    25   ar
     6    32    31    1
     7    31    33   ar
     8    25    26    1
     9    25    24   ar
    10    33    24   ar
    11    33    34    1
    12    24     1    1
    13     1    13    1
    14     1     2    1
    15    15    14    1
    16    12    11    1
    17    13    14   ar
    18    13    22   ar
    19    14    16   ar
    20    23    22    1
    21    22    20   ar
    22    16    17    1
    23    16    18   ar
    24    11     2   ar
    25    11     9   ar
    26     2     3   ar
    27    20    18   ar
    28    20    21    1
    29    18    19    1
    30    10     9    1
    31     9     7   ar
    32     3     4    1
    33     3     5   ar
    34     7     5   ar
    35     7     8    1
    36     5     6    1
