@<TRIPOS>MOLECULE
1
 28 30 0 0 0
SMALL
GASTEIGER

@<TRIPOS>ATOM
      1 P          -0.0244    6.0704    4.6183 P.3     1  UNL1        0.2215
      2 N          -0.4799    7.6580    4.1189 N.ar    1  UNL1       -0.2981
      3 N           1.0635    6.5549    5.8430 N.ar    1  UNL1       -0.2981
      4 N          -1.4166    5.7507    5.5830 N.ar    1  UNL1       -0.2981
      5 C          -1.7276    7.9769    3.6362 C.ar    1  UNL1        0.0115
      6 H          -2.5433    7.2828    3.6984 H       1  UNL1        0.0813
      7 C          -1.7006    9.2473    3.1472 C.ar    1  UNL1       -0.0438
      8 H          -2.5282    9.7829    2.7256 H       1  UNL1        0.0633
      9 C          -0.3798    9.7288    3.3076 C.ar    1  UNL1       -0.0438
     10 H          -0.0144   10.6976    3.0286 H       1  UNL1        0.0633
     11 C           0.3449    8.7331    3.8880 C.ar    1  UNL1        0.0115
     12 H           1.3754    8.7174    4.1819 H       1  UNL1        0.0813
     13 C           2.1558    5.8121    6.2288 C.ar    1  UNL1        0.0115
     14 H           2.3942    4.8871    5.7381 H       1  UNL1        0.0813
     15 C           2.7970    6.4549    7.2397 C.ar    1  UNL1       -0.0438
     16 H           3.6814    6.1220    7.7468 H       1  UNL1        0.0633
     17 C           2.0781    7.6477    7.4969 C.ar    1  UNL1       -0.0438
     18 H           2.3175    8.3879    8.2353 H       1  UNL1        0.0633
     19 C           1.0277    7.6840    6.6346 C.ar    1  UNL1        0.0115
     20 H           0.2637    8.4278    6.5170 H       1  UNL1        0.0813
     21 C          -2.5537    5.1502    5.0955 C.ar    1  UNL1        0.0115
     22 H          -2.5962    4.7677    4.0921 H       1  UNL1        0.0813
     23 C          -3.5079    5.1451    6.0648 C.ar    1  UNL1       -0.0438
     24 H          -4.5008    4.7496    5.9784 H       1  UNL1        0.0633
     25 C          -2.9399    5.7519    7.2075 C.ar    1  UNL1       -0.0438
     26 H          -3.4176    5.8963    8.1566 H       1  UNL1        0.0633
     27 C          -1.6678    6.1116    6.8862 C.ar    1  UNL1        0.0115
     28 H          -0.9196    6.5750    7.4975 H       1  UNL1        0.0813
@<TRIPOS>BOND
     1     8     7    1
     2    10     9    1
     3     7     9   ar
     4     7     5   ar
     5     9    11   ar
     6     5     6    1
     7     5     2   ar
     8    11     2   ar
     9    11    12    1
    10    22    21    1
    11     2     1    1
    12     1     4    1
    13     1     3    1
    14    21     4   ar
    15    21    23   ar
    16     4    27   ar
    17    14    13    1
    18     3    13   ar
    19     3    19   ar
    20    24    23    1
    21    23    25   ar
    22    13    15   ar
    23    20    19    1
    24    19    17   ar
    25    27    25   ar
    26    27    28    1
    27    25    26    1
    28    15    17   ar
    29    15    16    1
    30    17    18    1
