@<TRIPOS>MOLECULE
1
 34 36 0 0 0
SMALL
GASTEIGER

@<TRIPOS>ATOM
      1 P           1.6525    1.7265    3.6450 P.3     1  UNL1       -0.0131
      2 C           1.6392    1.6886    5.4716 C.ar    1  UNL1       -0.0147
      3 C           2.1212    2.7657    6.2012 C.ar    1  UNL1       -0.0535
      4 H           2.5093    3.6322    5.6801 H       1  UNL1        0.0624
      5 C           2.1202    2.7317    7.5844 C.ar    1  UNL1       -0.0611
      6 H           2.4973    3.5750    8.1440 H       1  UNL1        0.0618
      7 C           1.6430    1.6147    8.2469 C.ar    1  UNL1       -0.0617
      8 H           1.6425    1.5846    9.3265 H       1  UNL1        0.0618
      9 C           1.1750    0.5275    7.5243 C.ar    1  UNL1       -0.0611
     10 H           0.8127   -0.3493    8.0411 H       1  UNL1        0.0618
     11 C           1.1745    0.5592    6.1434 C.ar    1  UNL1       -0.0535
     12 H           0.8177   -0.2915    5.5781 H       1  UNL1        0.0624
     13 C           2.3345    0.0512    3.3657 C.ar    1  UNL1       -0.0147
     14 C           1.6260   -1.0089    2.8154 C.ar    1  UNL1       -0.0535
     15 H           0.5954   -0.8815    2.5156 H       1  UNL1        0.0624
     16 C           2.2422   -2.2374    2.6452 C.ar    1  UNL1       -0.0611
     17 H           1.6862   -3.0558    2.2111 H       1  UNL1        0.0618
     18 C           3.5598   -2.4194    3.0256 C.ar    1  UNL1       -0.0617
     19 H           4.0354   -3.3788    2.8871 H       1  UNL1        0.0618
     20 C           4.2692   -1.3663    3.5823 C.ar    1  UNL1       -0.0611
     21 H           5.2982   -1.5025    3.8804 H       1  UNL1        0.0618
     22 C           3.6612   -0.1385    3.7488 C.ar    1  UNL1       -0.0535
     23 H           4.2143    0.6900    4.1750 H       1  UNL1        0.0624
     24 C          -0.1039    1.4864    3.2261 C.ar    1  UNL1       -0.0147
     25 C          -0.3927    1.3380    1.8697 C.ar    1  UNL1       -0.0535
     26 H           0.4200    1.3385    1.1552 H       1  UNL1        0.0624
     27 C          -1.6986    1.1951    1.4446 C.ar    1  UNL1       -0.0611
     28 H          -1.9134    1.0869    0.3917 H       1  UNL1        0.0618
     29 C          -2.7296    1.1927    2.3716 C.ar    1  UNL1       -0.0617
     30 H          -3.7521    1.0790    2.0425 H       1  UNL1        0.0618
     31 C          -2.4475    1.3387    3.7191 C.ar    1  UNL1       -0.0611
     32 H          -3.2496    1.3339    4.4431 H       1  UNL1        0.0618
     33 C          -1.1416    1.4979    4.1503 C.ar    1  UNL1       -0.0535
     34 H          -0.9360    1.6332    5.2026 H       1  UNL1        0.0624
@<TRIPOS>BOND
     1    28    27    1
     2    26    25    1
     3    27    25   ar
     4    27    29   ar
     5    25    24   ar
     6    30    29    1
     7    17    16    1
     8    29    31   ar
     9    15    14    1
    10    16    14   ar
    11    16    18   ar
    12    14    13   ar
    13    19    18    1
    14    18    20   ar
    15    24     1    1
    16    24    33   ar
    17    13     1    1
    18    13    22   ar
    19    20    22   ar
    20    20    21    1
    21     1     2    1
    22    31    33   ar
    23    31    32    1
    24    22    23    1
    25    33    34    1
    26     2    11   ar
    27     2     3   ar
    28    12    11    1
    29     4     3    1
    30    11     9   ar
    31     3     5   ar
    32     9    10    1
    33     9     7   ar
    34     5     6    1
    35     5     7   ar
    36     7     8    1
