@<TRIPOS>MOLECULE
1
 13 12 0 0 0
SMALL
GASTEIGER

@<TRIPOS>ATOM
      1 P           3.9346    4.2494   13.0690 P.3     1  UNL1       -0.1154
      2 C           4.8074    5.5361   14.0587 C.3     1  UNL1       -0.0447
      3 H           4.1672    6.4082   14.1712 H       1  UNL1        0.0277
      4 H           5.7131    5.8502   13.5449 H       1  UNL1        0.0277
      5 H           5.0616    5.1482   15.0443 H       1  UNL1        0.0277
      6 C           2.3229    4.2352   13.9661 C.3     1  UNL1       -0.0447
      7 H           2.4946    4.1890   15.0408 H       1  UNL1        0.0277
      8 H           1.7399    3.3704   13.6540 H       1  UNL1        0.0277
      9 H           1.7665    5.1396   13.7281 H       1  UNL1        0.0277
     10 C           4.6804    2.7313   13.8095 C.3     1  UNL1       -0.0447
     11 H           4.7825    2.8491   14.8879 H       1  UNL1        0.0277
     12 H           5.6566    2.5535   13.3638 H       1  UNL1        0.0277
     13 H           4.0476    1.8718   13.5963 H       1  UNL1        0.0277
@<TRIPOS>BOND
     1     1    10    1
     2     1     6    1
     3     1     2    1
     4    12    10    1
     5     4     2    1
     6    13    10    1
     7     8     6    1
     8     9     6    1
     9    10    11    1
    10     6     7    1
    11     2     3    1
    12     2     5    1
