@<TRIPOS>MOLECULE
1
 17 17 0 0 0
SMALL
GASTEIGER

@<TRIPOS>ATOM
      1 P          -1.5243    3.0415   16.6288 P.3     1  UNL1        0.0776
      2 N          -2.1287    3.2368   18.2672 N.3     1  UNL1       -0.1870
      3 C          -3.0891    2.9768   17.4535 C.3     1  UNL1        0.1188
      4 C          -4.5092    2.9071   17.4433 C.ar    1  UNL1       -0.0211
      5 C          -5.2042    2.9622   16.2339 C.ar    1  UNL1       -0.0564
      6 H          -4.6514    3.0482   15.3091 H       1  UNL1        0.0621
      7 C          -6.5833    2.9343   16.2273 C.ar    1  UNL1       -0.0585
      8 H          -7.1143    2.9880   15.2881 H       1  UNL1        0.0620
      9 C          -7.2995    2.8383   17.4162 C.ar    1  UNL1       -0.0504
     10 C          -6.5995    2.7825   18.6211 C.ar    1  UNL1       -0.0585
     11 H          -7.1500    2.7138   19.5482 H       1  UNL1        0.0620
     12 C          -5.2233    2.8222   18.6438 C.ar    1  UNL1       -0.0564
     13 H          -4.6801    2.7880   19.5758 H       1  UNL1        0.0621
     14 C          -8.7940    2.7947   17.4182 C.3     1  UNL1       -0.0397
     15 H          -9.1943    3.5867   18.0493 H       1  UNL1        0.0278
     16 H          -9.1417    1.8443   17.8221 H       1  UNL1        0.0278
     17 H          -9.1921    2.9122   16.4140 H       1  UNL1        0.0278
@<TRIPOS>BOND
     1     8     7    1
     2     6     5    1
     3     7     5   ar
     4     7     9   ar
     5     5     4   ar
     6    17    14    1
     7     1     2    1
     8     9    14    1
     9     9    10   ar
    10    14    16    1
    11    14    15    1
    12     4     3    1
    13     4    12   ar
    14     3     2    1
    15    10    12   ar
    16    10    11    1
    17    12    13    1
