@<TRIPOS>MOLECULE
2
 24 25 0 0 0
SMALL
GASTEIGER

@<TRIPOS>ATOM
      1 I           8.0863    5.0551    2.4461 I       1  UNL1       -0.0425
      2 P           6.3164    6.6128    3.0530 P.3     1  UNL1        0.0217
      3 C           5.4769    5.6892    4.3789 C.ar    1  UNL1       -0.0095
      4 C           6.2222    5.3194    5.4985 C.ar    1  UNL1       -0.0531
      5 H           7.2851    5.5266    5.5324 H       1  UNL1        0.0624
      6 C           5.6080    4.6707    6.5520 C.ar    1  UNL1       -0.0611
      7 H           6.1893    4.3740    7.4112 H       1  UNL1        0.0618
      8 C           4.2480    4.3990    6.5023 C.ar    1  UNL1       -0.0617
      9 H           3.7702    3.8899    7.3245 H       1  UNL1        0.0618
     10 C           3.5040    4.7769    5.3974 C.ar    1  UNL1       -0.0611
     11 H           2.4465    4.5659    5.3573 H       1  UNL1        0.0618
     12 C           4.1116    5.4250    4.3351 C.ar    1  UNL1       -0.0531
     13 H           3.5237    5.7154    3.4750 H       1  UNL1        0.0624
     14 C           5.1804    6.4459    1.6382 C.ar    1  UNL1       -0.0095
     15 C           4.8164    5.1990    1.1333 C.ar    1  UNL1       -0.0531
     16 H           5.2279    4.2959    1.5630 H       1  UNL1        0.0624
     17 C           3.9310    5.1212    0.0751 C.ar    1  UNL1       -0.0611
     18 H           3.6539    4.1555   -0.3177 H       1  UNL1        0.0618
     19 C           3.4042    6.2772   -0.4819 C.ar    1  UNL1       -0.0617
     20 H           2.7175    6.2106   -1.3111 H       1  UNL1        0.0618
     21 C           3.7597    7.5175    0.0224 C.ar    1  UNL1       -0.0611
     22 H           3.3481    8.4167   -0.4102 H       1  UNL1        0.0618
     23 C           4.6468    7.6033    1.0808 C.ar    1  UNL1       -0.0531
     24 H           4.9253    8.5722    1.4803 H       1  UNL1        0.0624
@<TRIPOS>BOND
     1    20    19    1
     2    19    21   ar
     3    19    17   ar
     4    22    21    1
     5    18    17    1
     6    21    23   ar
     7    17    15   ar
     8    23    24    1
     9    23    14   ar
    10    15    16    1
    11    15    14   ar
    12    14     2    1
    13     1     2    1
    14     2     3    1
    15    13    12    1
    16    12     3   ar
    17    12    10   ar
    18     3     4   ar
    19    11    10    1
    20    10     8   ar
    21     4     5    1
    22     4     6   ar
    23     8     6   ar
    24     8     9    1
    25     6     7    1
