@<TRIPOS>MOLECULE
1
 27 28 0 0 0
SMALL
GASTEIGER

@<TRIPOS>ATOM
      1 P           4.8312    3.1048   15.7294 P.3     1  UNL1       -0.0470
      2 C           6.4370    3.6908   16.4007 C.3     1  UNL1       -0.0364
      3 H           7.2002    2.9207   16.3033 H       1  UNL1        0.0283
      4 H           6.3087    3.9364   17.4546 H       1  UNL1        0.0283
      5 H           6.7417    4.5870   15.8582 H       1  UNL1        0.0283
      6 C           5.1309    3.1711   13.9314 C.ar    1  UNL1       -0.0192
      7 C           6.3784    2.8340   13.4109 C.ar    1  UNL1       -0.0538
      8 H           7.1959    2.5850   14.0706 H       1  UNL1        0.0624
      9 C           6.5849    2.8230   12.0432 C.ar    1  UNL1       -0.0612
     10 H           7.5573    2.5649   11.6523 H       1  UNL1        0.0618
     11 C           5.5489    3.1384   11.1797 C.ar    1  UNL1       -0.0617
     12 H           5.7118    3.1305   10.1133 H       1  UNL1        0.0618
     13 C           4.3028    3.4676   11.6887 C.ar    1  UNL1       -0.0612
     14 H           3.4934    3.7174   11.0196 H       1  UNL1        0.0618
     15 C           4.0918    3.4792   13.0555 C.ar    1  UNL1       -0.0538
     16 H           3.1214    3.7534   13.4454 H       1  UNL1        0.0624
     17 C           3.8298    4.5936   16.0541 C.ar    1  UNL1       -0.0192
     18 C           4.0273    5.7755   15.3462 C.ar    1  UNL1       -0.0538
     19 H           4.7502    5.8100   14.5428 H       1  UNL1        0.0624
     20 C           3.2870    6.8984   15.6681 C.ar    1  UNL1       -0.0612
     21 H           3.4354    7.8140   15.1163 H       1  UNL1        0.0618
     22 C           2.3586    6.8521   16.6969 C.ar    1  UNL1       -0.0617
     23 H           1.7851    7.7321   16.9436 H       1  UNL1        0.0618
     24 C           2.1670    5.6791   17.4089 C.ar    1  UNL1       -0.0612
     25 H           1.4478    5.6463   18.2135 H       1  UNL1        0.0618
     26 C           2.9005    4.5515   17.0862 C.ar    1  UNL1       -0.0538
     27 H           2.7616    3.6269   17.6335 H       1  UNL1        0.0624
@<TRIPOS>BOND
     1    12    11    1
     2    14    13    1
     3    11    13   ar
     4    11     9   ar
     5    10     9    1
     6    13    15   ar
     7     9     7   ar
     8    15    16    1
     9    15     6   ar
    10     7     6   ar
    11     7     8    1
    12     6     1    1
    13    19    18    1
    14    21    20    1
    15    18    20   ar
    16    18    17   ar
    17    20    22   ar
    18     1    17    1
    19     1     2    1
    20     5     2    1
    21    17    26   ar
    22     3     2    1
    23     2     4    1
    24    22    23    1
    25    22    24   ar
    26    26    24   ar
    27    26    27    1
    28    24    25    1
