@<TRIPOS>MOLECULE
1
 20 20 0 0 0
SMALL
GASTEIGER

@<TRIPOS>ATOM
      1 P           6.8652    3.4549    8.7848 P.3     1  UNL1       -0.0810
      2 C           6.6107    1.7185    9.2702 C.ar    1  UNL1       -0.0239
      3 C           5.5735    0.9110    8.8237 C.ar    1  UNL1       -0.0542
      4 H           4.8384    1.2949    8.1316 H       1  UNL1        0.0624
      5 C           5.4825   -0.4006    9.2609 C.ar    1  UNL1       -0.0612
      6 H           4.6762   -1.0279    8.9082 H       1  UNL1        0.0618
      7 C           6.4183   -0.9090   10.1453 C.ar    1  UNL1       -0.0617
      8 H           6.3399   -1.9320   10.4833 H       1  UNL1        0.0618
      9 C           7.4597   -0.1075   10.5890 C.ar    1  UNL1       -0.0612
     10 H           8.1976   -0.5045   11.2707 H       1  UNL1        0.0618
     11 C           7.5597    1.1965   10.1459 C.ar    1  UNL1       -0.0542
     12 H           8.3828    1.8332   10.4476 H       1  UNL1        0.0624
     13 C           5.5464    3.8374    7.5918 C.3     1  UNL1       -0.0405
     14 H           5.6718    3.2362    6.6914 H       1  UNL1        0.0280
     15 H           5.6563    4.8906    7.3272 H       1  UNL1        0.0280
     16 H           4.5659    3.6689    8.0377 H       1  UNL1        0.0280
     17 C           6.2838    4.2878   10.3037 C.3     1  UNL1       -0.0405
     18 H           6.3413    5.3642   10.1533 H       1  UNL1        0.0280
     19 H           6.9462    4.0187   11.1243 H       1  UNL1        0.0280
     20 H           5.2620    3.9795   10.5249 H       1  UNL1        0.0280
@<TRIPOS>BOND
     1    14    13    1
     2    15    13    1
     3    13    16    1
     4    13     1    1
     5     4     3    1
     6     1     2    1
     7     1    17    1
     8     3     5   ar
     9     3     2   ar
    10     6     5    1
    11     5     7   ar
    12     2    11   ar
    13     7     8    1
    14     7     9   ar
    15    11    12    1
    16    11     9   ar
    17    18    17    1
    18    17    20    1
    19    17    19    1
    20     9    10    1
