@<TRIPOS>MOLECULE
1
 20 20 0 0 0
SMALL
GASTEIGER

@<TRIPOS>ATOM
      1 P           9.8788    2.0282    7.3664 P.3     1  UNL1       -0.0810
      2 C          10.7046    0.9752    8.6053 C.ar    1  UNL1       -0.0239
      3 C          10.3216   -0.3162    8.9383 C.ar    1  UNL1       -0.0542
      4 H           9.4869   -0.7887    8.4435 H       1  UNL1        0.0624
      5 C          11.0067   -1.0095    9.9228 C.ar    1  UNL1       -0.0612
      6 H          10.7032   -2.0152   10.1773 H       1  UNL1        0.0618
      7 C          12.0732   -0.4228   10.5809 C.ar    1  UNL1       -0.0617
      8 H          12.6018   -0.9686   11.3489 H       1  UNL1        0.0618
      9 C          12.4569    0.8691   10.2550 C.ar    1  UNL1       -0.0612
     10 H          13.2874    1.3328   10.7681 H       1  UNL1        0.0618
     11 C          11.7717    1.5632    9.2776 C.ar    1  UNL1       -0.0542
     12 H          12.0381    2.5808    9.0245 H       1  UNL1        0.0624
     13 C           8.6757    0.8948    6.5847 C.3     1  UNL1       -0.0405
     14 H           8.2385    1.4039    5.7272 H       1  UNL1        0.0280
     15 H           7.8860    0.6370    7.2888 H       1  UNL1        0.0280
     16 H           9.1944   -0.0034    6.2492 H       1  UNL1        0.0280
     17 C          11.1724    2.0849    6.0723 C.3     1  UNL1       -0.0405
     18 H          11.4330    1.0696    5.7726 H       1  UNL1        0.0280
     19 H          12.0539    2.5949    6.4582 H       1  UNL1        0.0280
     20 H          10.7789    2.6350    5.2185 H       1  UNL1        0.0280
@<TRIPOS>BOND
     1    20    17    1
     2    14    13    1
     3    18    17    1
     4    17    19    1
     5    17     1    1
     6    16    13    1
     7    13    15    1
     8    13     1    1
     9     1     2    1
    10     4     3    1
    11     2     3   ar
    12     2    11   ar
    13     3     5   ar
    14    12    11    1
    15    11     9   ar
    16     5     6    1
    17     5     7   ar
    18     9     7   ar
    19     9    10    1
    20     7     8    1
