@<TRIPOS>MOLECULE
1
 20 20 0 0 0
SMALL
GASTEIGER

@<TRIPOS>ATOM
      1 P          10.8992    5.6467    7.4550 P.3     1  UNL1       -0.0810
      2 C          12.6256    5.0686    7.4556 C.ar    1  UNL1       -0.0239
      3 C          13.1854    4.7560    8.6926 C.ar    1  UNL1       -0.0542
      4 H          12.5835    4.8878    9.5818 H       1  UNL1        0.0624
      5 C          14.4811    4.2843    8.7760 C.ar    1  UNL1       -0.0612
      6 H          14.9109    4.0493    9.7390 H       1  UNL1        0.0618
      7 C          15.2308    4.1094    7.6229 C.ar    1  UNL1       -0.0617
      8 H          16.2437    3.7402    7.6856 H       1  UNL1        0.0618
      9 C          14.6770    4.4069    6.3898 C.ar    1  UNL1       -0.0612
     10 H          15.2578    4.2686    5.4891 H       1  UNL1        0.0618
     11 C          13.3787    4.8816    6.3037 C.ar    1  UNL1       -0.0542
     12 H          12.9564    5.1054    5.3351 H       1  UNL1        0.0624
     13 C          11.0611    7.1072    8.5471 C.3     1  UNL1       -0.0405
     14 H          10.1960    7.7472    8.3894 H       1  UNL1        0.0280
     15 H          11.9816    7.6411    8.3117 H       1  UNL1        0.0280
     16 H          11.0547    6.7882    9.5877 H       1  UNL1        0.0280
     17 C          10.6748    6.4367    5.8307 C.3     1  UNL1       -0.0405
     18 H          10.6618    5.6886    5.0392 H       1  UNL1        0.0280
     19 H          11.4618    7.1711    5.6567 H       1  UNL1        0.0280
     20 H           9.7006    6.9282    5.8539 H       1  UNL1        0.0280
@<TRIPOS>BOND
     1    18    17    1
     2    12    11    1
     3    10     9    1
     4    19    17    1
     5    17    20    1
     6    17     1    1
     7    11     9   ar
     8    11     2   ar
     9     9     7   ar
    10     1     2    1
    11     1    13    1
    12     2     3   ar
    13     7     8    1
    14     7     5   ar
    15    15    13    1
    16    14    13    1
    17    13    16    1
    18     3     5   ar
    19     3     4    1
    20     5     6    1
