@<TRIPOS>MOLECULE
1
 34 36 0 0 0
SMALL
GASTEIGER

@<TRIPOS>ATOM
      1 P           2.7700    6.8251    2.2439 P.3     1  UNL1       -0.0131
      2 C           1.8158    6.5995    3.7749 C.ar    1  UNL1       -0.0147
      3 C           0.4304    6.5717    3.8588 C.ar    1  UNL1       -0.0535
      4 H          -0.1775    6.7439    2.9833 H       1  UNL1        0.0624
      5 C          -0.1779    6.3389    5.0819 C.ar    1  UNL1       -0.0611
      6 H          -1.2554    6.3160    5.1433 H       1  UNL1        0.0618
      7 C           0.5854    6.1388    6.2188 C.ar    1  UNL1       -0.0617
      8 H           0.1044    5.9505    7.1662 H       1  UNL1        0.0618
      9 C           1.9692    6.1894    6.1429 C.ar    1  UNL1       -0.0611
     10 H           2.5669    6.0464    7.0302 H       1  UNL1        0.0618
     11 C           2.5819    6.4171    4.9275 C.ar    1  UNL1       -0.0535
     12 H           3.6618    6.4649    4.8531 H       1  UNL1        0.0624
     13 C           3.7195    8.3372    2.6106 C.ar    1  UNL1       -0.0147
     14 C           3.2697    9.2627    3.5471 C.ar    1  UNL1       -0.0535
     15 H           2.3595    9.0787    4.0991 H       1  UNL1        0.0624
     16 C           3.9923   10.4212    3.7709 C.ar    1  UNL1       -0.0611
     17 H           3.6415   11.1356    4.5001 H       1  UNL1        0.0618
     18 C           5.1581   10.6680    3.0638 C.ar    1  UNL1       -0.0617
     19 H           5.7189   11.5716    3.2466 H       1  UNL1        0.0618
     20 C           5.6005    9.7570    2.1178 C.ar    1  UNL1       -0.0611
     21 H           6.5042    9.9485    1.5584 H       1  UNL1        0.0618
     22 C           4.8802    8.5993    1.8895 C.ar    1  UNL1       -0.0535
     23 H           5.2109    7.8840    1.1474 H       1  UNL1        0.0624
     24 C           1.6255    7.3903    0.9489 C.ar    1  UNL1       -0.0147
     25 C           1.8835    8.5662    0.2473 C.ar    1  UNL1       -0.0535
     26 H           2.7331    9.1794    0.5098 H       1  UNL1        0.0624
     27 C           1.0514    8.9582   -0.7846 C.ar    1  UNL1       -0.0611
     28 H           1.2587    9.8733   -1.3184 H       1  UNL1        0.0618
     29 C          -0.0413    8.1816   -1.1320 C.ar    1  UNL1       -0.0617
     30 H          -0.6911    8.4900   -1.9366 H       1  UNL1        0.0618
     31 C          -0.2964    7.0066   -0.4461 C.ar    1  UNL1       -0.0611
     32 H          -1.1439    6.3978   -0.7199 H       1  UNL1        0.0618
     33 C           0.5341    6.6030    0.5835 C.ar    1  UNL1       -0.0535
     34 H           0.3417    5.6680    1.0910 H       1  UNL1        0.0624
@<TRIPOS>BOND
     1    30    29    1
     2    28    27    1
     3    29    27   ar
     4    29    31   ar
     5    27    25   ar
     6    32    31    1
     7    31    33   ar
     8    25    26    1
     9    25    24   ar
    10    33    24   ar
    11    33    34    1
    12    24     1    1
    13    23    22    1
    14    21    20    1
    15    22    20   ar
    16    22    13   ar
    17    20    18   ar
    18     1    13    1
    19     1     2    1
    20    13    14   ar
    21     4     3    1
    22    18    19    1
    23    18    16   ar
    24    14    16   ar
    25    14    15    1
    26    16    17    1
    27     2     3   ar
    28     2    11   ar
    29     3     5   ar
    30    12    11    1
    31    11     9   ar
    32     5     6    1
    33     5     7   ar
    34     9     7   ar
    35     9    10    1
    36     7     8    1
