@<TRIPOS>MOLECULE
1
 34 36 0 0 0
SMALL
GASTEIGER

@<TRIPOS>ATOM
      1 P           5.2750    2.7970    0.8443 P.3     1  UNL1       -0.0131
      2 C           4.9380    1.2241    1.6857 C.ar    1  UNL1       -0.0147
      3 C           3.8666    1.0757    2.5561 C.ar    1  UNL1       -0.0535
      4 H           3.1808    1.8950    2.7108 H       1  UNL1        0.0624
      5 C           3.6687   -0.1266    3.2124 C.ar    1  UNL1       -0.0611
      6 H           2.8380   -0.2314    3.8940 H       1  UNL1        0.0618
      7 C           4.5339   -1.1850    2.9946 C.ar    1  UNL1       -0.0617
      8 H           4.3796   -2.1230    3.5057 H       1  UNL1        0.0618
      9 C           5.6000   -1.0433    2.1182 C.ar    1  UNL1       -0.0611
     10 H           6.2719   -1.8704    1.9456 H       1  UNL1        0.0618
     11 C           5.8094    0.1572    1.4679 C.ar    1  UNL1       -0.0535
     12 H           6.6453    0.2749    0.7913 H       1  UNL1        0.0624
     13 C           5.0512    2.4781   -0.9216 C.ar    1  UNL1       -0.0147
     14 C           5.4404    3.4776   -1.8129 C.ar    1  UNL1       -0.0535
     15 H           5.8915    4.3826   -1.4258 H       1  UNL1        0.0624
     16 C           5.2462    3.3093   -3.1696 C.ar    1  UNL1       -0.0611
     17 H           5.5429    4.0866   -3.8582 H       1  UNL1        0.0618
     18 C           4.6725    2.1397   -3.6448 C.ar    1  UNL1       -0.0617
     19 H           4.5243    2.0061   -4.7055 H       1  UNL1        0.0618
     20 C           4.2915    1.1432   -2.7617 C.ar    1  UNL1       -0.0611
     21 H           3.8563    0.2281   -3.1345 H       1  UNL1        0.0618
     22 C           4.4655    1.3121   -1.3987 C.ar    1  UNL1       -0.0535
     23 H           4.1516    0.5417   -0.7087 H       1  UNL1        0.0624
     24 C           7.0789    2.9223    1.0846 C.ar    1  UNL1       -0.0147
     25 C           8.0191    2.9473    0.0639 C.ar    1  UNL1       -0.0535
     26 H           7.7124    2.8369   -0.9660 H       1  UNL1        0.0624
     27 C           9.3620    3.1012    0.3676 C.ar    1  UNL1       -0.0611
     28 H          10.0894    3.1218   -0.4296 H       1  UNL1        0.0618
     29 C           9.7732    3.2228    1.6829 C.ar    1  UNL1       -0.0617
     30 H          10.8207    3.3430    1.9119 H       1  UNL1        0.0618
     31 C           8.8384    3.1838    2.7067 C.ar    1  UNL1       -0.0611
     32 H           9.1593    3.2646    3.7344 H       1  UNL1        0.0618
     33 C           7.4974    3.0410    2.4100 C.ar    1  UNL1       -0.0535
     34 H           6.7538    3.0150    3.1981 H       1  UNL1        0.0624
@<TRIPOS>BOND
     1    19    18    1
     2    17    16    1
     3    18    16   ar
     4    18    20   ar
     5    16    14   ar
     6    21    20    1
     7    20    22   ar
     8    14    15    1
     9    14    13   ar
    10    22    13   ar
    11    22    23    1
    12    26    25    1
    13    13     1    1
    14    28    27    1
    15    25    27   ar
    16    25    24   ar
    17    27    29   ar
    18    12    11    1
    19     1    24    1
    20     1     2    1
    21    24    33   ar
    22    11     2   ar
    23    11     9   ar
    24    29    30    1
    25    29    31   ar
    26     2     3   ar
    27    10     9    1
    28     9     7   ar
    29    33    31   ar
    30    33    34    1
    31     3     4    1
    32     3     5   ar
    33    31    32    1
    34     7     5   ar
    35     7     8    1
    36     5     6    1
