@<TRIPOS>MOLECULE
1
 25 25 0 0 0
SMALL
GASTEIGER

@<TRIPOS>ATOM
      1 P           3.3156    5.7193    9.3058 P.3     1  UNL1        0.1892
      2 O           2.4533    6.5278    8.2325 O.3     1  UNL1       -0.3306
      3 N           2.5738    6.0073   10.7961 N.3     1  UNL1       -0.2486
      4 N           4.5492    6.7898    9.7164 N.3     1  UNL1       -0.2486
      5 C           2.1154    7.9165    8.4102 C.3     1  UNL1        0.0518
      6 C           0.6581    8.0841    8.7999 C.3     1  UNL1       -0.0412
      7 C           1.4854    5.1519   11.2058 C.3     1  UNL1       -0.0058
      8 C           3.5271    6.3503   11.8383 C.3     1  UNL1        0.0187
      9 C           4.8145    6.8171   11.1426 C.3     1  UNL1        0.0187
     10 C           5.6951    6.9193    8.8466 C.3     1  UNL1       -0.0058
     11 H           2.3174    8.4017    7.4520 H       1  UNL1        0.0561
     12 H           2.7667    8.3469    9.1765 H       1  UNL1        0.0561
     13 H           0.4638    7.5854    9.7452 H       1  UNL1        0.0252
     14 H           0.4349    9.1418    8.9074 H       1  UNL1        0.0252
     15 H           0.0070    7.6668    8.0369 H       1  UNL1        0.0252
     16 H           0.8595    5.6772   11.9297 H       1  UNL1        0.0395
     17 H           0.8902    4.9092   10.3270 H       1  UNL1        0.0395
     18 H           1.8354    4.2203   11.6650 H       1  UNL1        0.0395
     19 H           3.7215    5.4938   12.4973 H       1  UNL1        0.0443
     20 H           3.0993    7.1472   12.4550 H       1  UNL1        0.0443
     21 H           5.6649    6.1727   11.4050 H       1  UNL1        0.0443
     22 H           5.0757    7.8393   11.4341 H       1  UNL1        0.0443
     23 H           6.1087    7.9258    8.9329 H       1  UNL1        0.0395
     24 H           6.4844    6.1988    9.0838 H       1  UNL1        0.0395
     25 H           5.3681    6.7588    7.8204 H       1  UNL1        0.0395
@<TRIPOS>BOND
     1    11     5    1
     2    25    10    1
     3    15     6    1
     4     2     5    1
     5     2     1    1
     6     5     6    1
     7     5    12    1
     8     6    14    1
     9     6    13    1
    10    10    23    1
    11    10    24    1
    12    10     4    1
    13     1     4    1
    14     1     3    1
    15     4     9    1
    16    17     7    1
    17     3     7    1
    18     3     8    1
    19     9    21    1
    20     9    22    1
    21     9     8    1
    22     7    18    1
    23     7    16    1
    24     8    20    1
    25     8    19    1
