@<TRIPOS>MOLECULE
1
 34 36 0 0 0
SMALL
GASTEIGER

@<TRIPOS>ATOM
      1 P          13.0914   10.8767   10.8350 P.3     1  UNL1       -0.0131
      2 C          11.4499   11.3823   10.2492 C.ar    1  UNL1       -0.0147
      3 C          11.3079   11.6260    8.8836 C.ar    1  UNL1       -0.0535
      4 C          10.0980   12.0555    8.3745 C.ar    1  UNL1       -0.0611
      5 C           9.0236   12.2586    9.2286 C.ar    1  UNL1       -0.0617
      6 C           9.1640   12.0311   10.5875 C.ar    1  UNL1       -0.0611
      7 C          10.3742   11.5962   11.1026 C.ar    1  UNL1       -0.0535
      8 C          12.8403   10.3963   12.5653 C.ar    1  UNL1       -0.0147
      9 C          12.0671    9.2774   12.8707 C.ar    1  UNL1       -0.0535
     10 C          11.8715    8.9224   14.1918 C.ar    1  UNL1       -0.0611
     11 C          12.4453    9.6720   15.2081 C.ar    1  UNL1       -0.0617
     12 C          13.2167   10.7819   14.9049 C.ar    1  UNL1       -0.0611
     13 C          13.4137   11.1459   13.5848 C.ar    1  UNL1       -0.0535
     14 C          13.3657    9.2554   10.0445 C.ar    1  UNL1       -0.0147
     15 C          14.5993    8.6450   10.2845 C.ar    1  UNL1       -0.0535
     16 C          14.8646    7.3910    9.7654 C.ar    1  UNL1       -0.0611
     17 C          13.9062    6.7385    9.0048 C.ar    1  UNL1       -0.0617
     18 C          12.6801    7.3391    8.7706 C.ar    1  UNL1       -0.0611
     19 C          12.4037    8.5934    9.2882 C.ar    1  UNL1       -0.0535
     20 H          12.1570   11.4607    8.2302 H       1  UNL1        0.0624
     21 H           9.9868   12.2317    7.3149 H       1  UNL1        0.0618
     22 H           8.0778   12.5947    8.8326 H       1  UNL1        0.0618
     23 H           8.3278   12.1918   11.2508 H       1  UNL1        0.0618
     24 H          10.4831   11.4191   12.1631 H       1  UNL1        0.0624
     25 H          11.6266    8.6928   12.0747 H       1  UNL1        0.0624
     26 H          11.2739    8.0560   14.4309 H       1  UNL1        0.0618
     27 H          12.2941    9.3857   16.2375 H       1  UNL1        0.0618
     28 H          13.6692   11.3592   15.6969 H       1  UNL1        0.0618
     29 H          14.0285   11.9994   13.3317 H       1  UNL1        0.0624
     30 H          15.3330    9.1562   10.8970 H       1  UNL1        0.0624
     31 H          15.8161    6.9203    9.9596 H       1  UNL1        0.0618
     32 H          14.1119    5.7592    8.6015 H       1  UNL1        0.0618
     33 H          11.9296    6.8263    8.1885 H       1  UNL1        0.0618
     34 H          11.4401    9.0487    9.1110 H       1  UNL1        0.0624
@<TRIPOS>BOND
     1    21     4    1
     2    33    18    1
     3    20     3    1
     4     4     3   ar
     5     4     5   ar
     6    32    17    1
     7    18    17   ar
     8    18    19   ar
     9    22     5    1
    10     3     2   ar
    11    17    16   ar
    12    34    19    1
    13     5     6   ar
    14    19    14   ar
    15    16    31    1
    16    16    15   ar
    17    14    15   ar
    18    14     1    1
    19     2     1    1
    20     2     7   ar
    21    15    30    1
    22     6     7   ar
    23     6    23    1
    24     1     8    1
    25     7    24    1
    26    25     9    1
    27     8     9   ar
    28     8    13   ar
    29     9    10   ar
    30    29    13    1
    31    13    12   ar
    32    10    26    1
    33    10    11   ar
    34    12    11   ar
    35    12    28    1
    36    11    27    1
