@<TRIPOS>MOLECULE
1
 34 36 0 0 0
SMALL
GASTEIGER

@<TRIPOS>ATOM
      1 P           8.8301    4.4048    0.1810 P.3     1  UNL1       -0.0131
      2 C           8.6940    3.2768    1.5974 C.ar    1  UNL1       -0.0147
      3 C           9.3377    2.0477    1.6632 C.ar    1  UNL1       -0.0535
      4 C           9.1474    1.2290    2.7645 C.ar    1  UNL1       -0.0611
      5 C           8.3187    1.6286    3.7992 C.ar    1  UNL1       -0.0617
      6 C           7.6715    2.8543    3.7370 C.ar    1  UNL1       -0.0611
      7 C           7.8536    3.6710    2.6384 C.ar    1  UNL1       -0.0535
      8 C          10.1080    3.6878   -0.8862 C.ar    1  UNL1       -0.0147
      9 C          11.4159    3.5698   -0.4180 C.ar    1  UNL1       -0.0535
     10 C          12.3875    3.0263   -1.2367 C.ar    1  UNL1       -0.0611
     11 C          12.0649    2.6074   -2.5194 C.ar    1  UNL1       -0.0617
     12 C          10.7671    2.7305   -2.9872 C.ar    1  UNL1       -0.0611
     13 C           9.7881    3.2697   -2.1711 C.ar    1  UNL1       -0.0535
     14 C           9.7356    5.8444    0.8473 C.ar    1  UNL1       -0.0147
     15 C          10.1353    5.9712    2.1734 C.ar    1  UNL1       -0.0535
     16 C          10.8639    7.0816    2.5677 C.ar    1  UNL1       -0.0611
     17 C          11.1985    8.0624    1.6491 C.ar    1  UNL1       -0.0617
     18 C          10.8064    7.9361    0.3244 C.ar    1  UNL1       -0.0611
     19 C          10.0775    6.8332   -0.0777 C.ar    1  UNL1       -0.0535
     20 H           9.9885    1.7338    0.8608 H       1  UNL1        0.0624
     21 H           9.6506    0.2754    2.8136 H       1  UNL1        0.0618
     22 H           8.1754    0.9877    4.6552 H       1  UNL1        0.0618
     23 H           7.0287    3.1674    4.5463 H       1  UNL1        0.0618
     24 H           7.3523    4.6307    2.5746 H       1  UNL1        0.0624
     25 H          11.6639    3.9061    0.5795 H       1  UNL1        0.0624
     26 H          13.4007    2.9331   -0.8767 H       1  UNL1        0.0618
     27 H          12.8300    2.1898   -3.1554 H       1  UNL1        0.0618
     28 H          10.5186    2.4105   -3.9873 H       1  UNL1        0.0618
     29 H           8.7721    3.3868   -2.5225 H       1  UNL1        0.0624
     30 H           9.8922    5.2036    2.8938 H       1  UNL1        0.0624
     31 H          11.1782    7.1743    3.5961 H       1  UNL1        0.0618
     32 H          11.7718    8.9209    1.9631 H       1  UNL1        0.0618
     33 H          11.0755    8.6942   -0.3949 H       1  UNL1        0.0618
     34 H           9.7763    6.7130   -1.1115 H       1  UNL1        0.0624
@<TRIPOS>BOND
     1    28    12    1
     2    27    11    1
     3    12    11   ar
     4    12    13   ar
     5    29    13    1
     6    11    10   ar
     7    13     8   ar
     8    10    26    1
     9    10     9   ar
    10    34    19    1
    11     8     9   ar
    12     8     1    1
    13     9    25    1
    14    33    18    1
    15    19    18   ar
    16    19    14   ar
    17     1    14    1
    18     1     2    1
    19    18    17   ar
    20    14    15   ar
    21    20     3    1
    22     2     3   ar
    23     2     7   ar
    24    17    32    1
    25    17    16   ar
    26     3     4   ar
    27    15    16   ar
    28    15    30    1
    29    16    31    1
    30    24     7    1
    31     7     6   ar
    32     4    21    1
    33     4     5   ar
    34     6     5   ar
    35     6    23    1
    36     5    22    1
