@<TRIPOS>MOLECULE
1
 34 36 0 0 0
SMALL
GASTEIGER

@<TRIPOS>ATOM
      1 P           5.8100    3.2865    4.2905 P.3     1  UNL1       -0.0131
      2 C           6.5103    2.5961    2.7645 C.ar    1  UNL1       -0.0147
      3 C           7.1151    3.4932    1.8852 C.ar    1  UNL1       -0.0535
      4 C           7.6716    3.0462    0.7027 C.ar    1  UNL1       -0.0611
      5 C           7.6224    1.6965    0.3859 C.ar    1  UNL1       -0.0617
      6 C           7.0248    0.8011    1.2571 C.ar    1  UNL1       -0.0611
      7 C           6.4693    1.2447    2.4460 C.ar    1  UNL1       -0.0535
      8 C           5.0694    1.8819    5.1624 C.ar    1  UNL1       -0.0147
      9 C           5.8648    0.9140    5.7716 C.ar    1  UNL1       -0.0535
     10 C           5.2663   -0.1537    6.4152 C.ar    1  UNL1       -0.0611
     11 C           3.8842   -0.2592    6.4553 C.ar    1  UNL1       -0.0617
     12 C           3.0926    0.7046    5.8514 C.ar    1  UNL1       -0.0611
     13 C           3.6839    1.7750    5.2058 C.ar    1  UNL1       -0.0535
     14 C           7.2786    3.6471    5.3108 C.ar    1  UNL1       -0.0147
     15 C           7.0428    4.0577    6.6245 C.ar    1  UNL1       -0.0535
     16 C           8.1046    4.3307    7.4660 C.ar    1  UNL1       -0.0611
     17 C           9.4067    4.2002    7.0056 C.ar    1  UNL1       -0.0617
     18 C           9.6434    3.7914    5.7038 C.ar    1  UNL1       -0.0611
     19 C           8.5856    3.5134    4.8537 C.ar    1  UNL1       -0.0535
     20 H           7.1503    4.5440    2.1502 H       1  UNL1        0.0624
     21 H           8.1451    3.7434    0.0276 H       1  UNL1        0.0618
     22 H           8.0533    1.3453   -0.5388 H       1  UNL1        0.0618
     23 H           6.9912   -0.2493    1.0116 H       1  UNL1        0.0618
     24 H           6.0093    0.5421    3.1250 H       1  UNL1        0.0624
     25 H           6.9420    1.0046    5.7434 H       1  UNL1        0.0624
     26 H           5.8792   -0.9037    6.8913 H       1  UNL1        0.0618
     27 H           3.4240   -1.0917    6.9647 H       1  UNL1        0.0618
     28 H           2.0171    0.6233    5.8906 H       1  UNL1        0.0618
     29 H           3.0845    2.5515    4.7436 H       1  UNL1        0.0624
     30 H           6.0218    4.1425    6.9755 H       1  UNL1        0.0624
     31 H           7.9183    4.6392    8.4833 H       1  UNL1        0.0618
     32 H          10.2356    4.4103    7.6636 H       1  UNL1        0.0618
     33 H          10.6562    3.6798    5.3477 H       1  UNL1        0.0618
     34 H           8.7796    3.1814    3.8442 H       1  UNL1        0.0624
@<TRIPOS>BOND
     1    22     5    1
     2    21     4    1
     3     5     4   ar
     4     5     6   ar
     5     4     3   ar
     6    23     6    1
     7     6     7   ar
     8     3    20    1
     9     3     2   ar
    10     7     2   ar
    11     7    24    1
    12     2     1    1
    13    34    19    1
    14     1     8    1
    15     1    14    1
    16    29    13    1
    17    19    14   ar
    18    19    18   ar
    19     8    13   ar
    20     8     9   ar
    21    13    12   ar
    22    14    15   ar
    23    33    18    1
    24    18    17   ar
    25    25     9    1
    26     9    10   ar
    27    12    28    1
    28    12    11   ar
    29    10    11   ar
    30    10    26    1
    31    11    27    1
    32    15    30    1
    33    15    16   ar
    34    17    16   ar
    35    17    32    1
    36    16    31    1
