@<TRIPOS>MOLECULE
1
 34 36 0 0 0
SMALL
GASTEIGER

@<TRIPOS>ATOM
      1 P           6.3004   58.7499    3.6251 P.3     1  UNL1       -0.0131
      2 C           7.8358   59.5529    3.0441 C.ar    1  UNL1       -0.0147
      3 C           8.5674   60.3390    3.9239 C.ar    1  UNL1       -0.0535
      4 H           8.2229   60.4450    4.9443 H       1  UNL1        0.0624
      5 C           9.7288   60.9645    3.5056 C.ar    1  UNL1       -0.0611
      6 H          10.2947   61.5678    4.1998 H       1  UNL1        0.0618
      7 C          10.1652   60.8071    2.2016 C.ar    1  UNL1       -0.0617
      8 H          11.0742   61.2890    1.8735 H       1  UNL1        0.0618
      9 C           9.4342   60.0309    1.3144 C.ar    1  UNL1       -0.0611
     10 H           9.7721   59.9125    0.2953 H       1  UNL1        0.0618
     11 C           8.2728   59.4070    1.7288 C.ar    1  UNL1       -0.0535
     12 H           7.7002   58.8035    1.0377 H       1  UNL1        0.0624
     13 C           5.0172   59.6836    2.7174 C.ar    1  UNL1       -0.0147
     14 C           5.3163   60.8204    1.9730 C.ar    1  UNL1       -0.0535
     15 H           6.3383   61.1610    1.8871 H       1  UNL1        0.0624
     16 C           4.3055   61.5247    1.3419 C.ar    1  UNL1       -0.0611
     17 H           4.5490   62.4061    0.7665 H       1  UNL1        0.0618
     18 C           2.9899   61.1072    1.4484 C.ar    1  UNL1       -0.0617
     19 H           2.2048   61.6591    0.9533 H       1  UNL1        0.0618
     20 C           2.6833   59.9858    2.2024 C.ar    1  UNL1       -0.0611
     21 H           1.6579   59.6608    2.2999 H       1  UNL1        0.0618
     22 C           3.6868   59.2826    2.8430 C.ar    1  UNL1       -0.0535
     23 H           3.4359   58.4235    3.4511 H       1  UNL1        0.0624
     24 C           6.4168   57.1716    2.7111 C.ar    1  UNL1       -0.0147
     25 C           5.3667   56.6065    1.9982 C.ar    1  UNL1       -0.0535
     26 H           4.4181   57.1141    1.9245 H       1  UNL1        0.0624
     27 C           5.5370   55.3859    1.3678 C.ar    1  UNL1       -0.0611
     28 H           4.7131   54.9526    0.8209 H       1  UNL1        0.0618
     29 C           6.7526   54.7290    1.4305 C.ar    1  UNL1       -0.0617
     30 H           6.8858   53.7841    0.9271 H       1  UNL1        0.0618
     31 C           7.8058   55.2912    2.1342 C.ar    1  UNL1       -0.0611
     32 H           8.7595   54.7873    2.1736 H       1  UNL1        0.0618
     33 C           7.6371   56.4990    2.7809 C.ar    1  UNL1       -0.0535
     34 H           8.4558   56.9467    3.3304 H       1  UNL1        0.0624
@<TRIPOS>BOND
     1    10     9    1
     2    17    16    1
     3    28    27    1
     4    30    29    1
     5    19    18    1
     6    12    11    1
     7     9    11   ar
     8     9     7   ar
     9    16    18   ar
    10    16    14   ar
    11    27    29   ar
    12    27    25   ar
    13    29    31   ar
    14    18    20   ar
    15    11     2   ar
    16     8     7    1
    17    15    14    1
    18    26    25    1
    19    14    13   ar
    20    25    24   ar
    21    31    32    1
    22    31    33   ar
    23     7     5   ar
    24    20    21    1
    25    20    22   ar
    26    24    33   ar
    27    24     1    1
    28    13    22   ar
    29    13     1    1
    30    33    34    1
    31    22    23    1
    32     2     1    1
    33     2     3   ar
    34     5     3   ar
    35     5     6    1
    36     3     4    1
