@<TRIPOS>MOLECULE
1
 63 68 0 0 0
SMALL
GASTEIGER

@<TRIPOS>ATOM
      1 P           3.1192    9.8817    6.9882 P.3     1  UNL1        0.0000
      2 SI          4.3126    8.2314    6.0224 Si      1  UNL1        0.0000
      3 SI          3.2516    6.1338    5.7162 Si      1  UNL1        0.0000
      4 SI          6.5933    8.4338    6.6346 Si      1  UNL1        0.0000
      5 C           3.4687    9.7709    5.1611 C.3     1  UNL1        0.0000
      6 C           2.3588    9.5716    4.1530 C.3     1  UNL1        0.0000
      7 H           1.6260    8.8537    4.5361 H       1  UNL1        0.0000
      8 C           2.9782    9.0355    2.8603 C.3     1  UNL1        0.0000
      9 H           3.4716    8.0801    3.0591 H       1  UNL1        0.0000
     10 H           2.1968    8.8662    2.1157 H       1  UNL1        0.0000
     11 C           3.9937   10.0443    2.3236 C.3     1  UNL1        0.0000
     12 H           4.4461    9.6517    1.4056 H       1  UNL1        0.0000
     13 C           5.0848   10.2852    3.3664 C.3     1  UNL1        0.0000
     14 H           5.8086   11.0085    2.9845 H       1  UNL1        0.0000
     15 H           5.6124    9.3504    3.5729 H       1  UNL1        0.0000
     16 C           4.4473   10.8132    4.6525 C.3     1  UNL1        0.0000
     17 H           5.2228   10.9896    5.4063 H       1  UNL1        0.0000
     18 C           3.7383   12.1340    4.3542 C.3     1  UNL1        0.0000
     19 H           3.2828   12.5194    5.2714 H       1  UNL1        0.0000
     20 H           4.4639   12.8724    4.0049 H       1  UNL1        0.0000
     21 C           2.6594   11.9056    3.3008 C.3     1  UNL1        0.0000
     22 H           2.1480   12.8510    3.0883 H       1  UNL1        0.0000
     23 C           1.6567   10.8996    3.8554 C.3     1  UNL1        0.0000
     24 H           0.8449   10.7354    3.1423 H       1  UNL1        0.0000
     25 H           1.2270   11.3084    4.7723 H       1  UNL1        0.0000
     26 C           3.2865   11.3640    2.0180 C.3     1  UNL1        0.0000
     27 H           2.5127   11.2078    1.2628 H       1  UNL1        0.0000
     28 H           4.0016   12.0871    1.6196 H       1  UNL1        0.0000
     29 C           1.5424    9.0482    7.3561 C.ar    1  UNL1        0.0000
     30 C           1.6008    8.0534    8.3326 C.ar    1  UNL1        0.0000
     31 H           2.5660    7.7851    8.7455 H       1  UNL1        0.0000
     32 C           0.4513    7.4349    8.7825 C.ar    1  UNL1        0.0000
     33 H           0.5098    6.6710    9.5445 H       1  UNL1        0.0000
     34 C          -0.7793    7.8008    8.2607 C.ar    1  UNL1        0.0000
     35 H          -1.6806    7.3177    8.6073 H       1  UNL1        0.0000
     36 C          -0.8509    8.8033    7.3084 C.ar    1  UNL1        0.0000
     37 H          -1.8104    9.1071    6.9155 H       1  UNL1        0.0000
     38 C           0.2992    9.4347    6.8679 C.ar    1  UNL1        0.0000
     39 H           0.2213   10.2383    6.1521 H       1  UNL1        0.0000
     40 C           3.3151    5.1154    7.3316 C.3     1  UNL1        0.0000
     41 H           2.4996    5.3692    8.0000 H       1  UNL1        0.0000
     42 H           4.2443    5.2764    7.8687 H       1  UNL1        0.0000
     43 H           3.2438    4.0522    7.1201 H       1  UNL1        0.0000
     44 C           1.4492    6.0905    5.0759 C.3     1  UNL1        0.0000
     45 H           1.0694    5.0717    5.0613 H       1  UNL1        0.0000
     46 H           1.3689    6.4827    4.0668 H       1  UNL1        0.0000
     47 H           0.7916    6.6733    5.7141 H       1  UNL1        0.0000
     48 C           4.3720    5.2312    4.4545 C.3     1  UNL1        0.0000
     49 H           3.9884    4.2417    4.2255 H       1  UNL1        0.0000
     50 H           5.3742    5.1046    4.8525 H       1  UNL1        0.0000
     51 H           4.4589    5.7695    3.5161 H       1  UNL1        0.0000
     52 C           7.7054    7.7856    5.2228 C.3     1  UNL1        0.0000
     53 H           7.7405    8.4685    4.3802 H       1  UNL1        0.0000
     54 H           7.3535    6.8271    4.8549 H       1  UNL1        0.0000
     55 H           8.7253    7.6459    5.5678 H       1  UNL1        0.0000
     56 C           7.2043   10.1647    7.1659 C.3     1  UNL1        0.0000
     57 H           6.4507   10.6725    7.7648 H       1  UNL1        0.0000
     58 H           7.4286   10.7984    6.3126 H       1  UNL1        0.0000
     59 H           8.1067   10.0968    7.7685 H       1  UNL1        0.0000
     60 C           6.7895    7.2510    8.1215 C.3     1  UNL1        0.0000
     61 H           7.8114    7.2412    8.4891 H       1  UNL1        0.0000
     62 H           6.5350    6.2312    7.8485 H       1  UNL1        0.0000
     63 H           6.1505    7.5426    8.9494 H       1  UNL1        0.0000
@<TRIPOS>BOND
     1    27    26    1
     2    12    11    1
     3    28    26    1
     4    26    11    1
     5    26    21    1
     6    10     8    1
     7    11     8    1
     8    11    13    1
     9     8     9    1
    10     8     6    1
    11    14    13    1
    12    22    21    1
    13    24    23    1
    14    21    23    1
    15    21    18    1
    16    13    15    1
    17    13    16    1
    18    51    48    1
    19    23     6    1
    20    23    25    1
    21    20    18    1
    22    46    44    1
    23     6     7    1
    24     6     5    1
    25    49    48    1
    26    18    16    1
    27    18    19    1
    28    53    52    1
    29    48    50    1
    30    48     3    1
    31    16     5    1
    32    16    17    1
    33    54    52    1
    34    45    44    1
    35    44    47    1
    36    44     3    1
    37     5     2    1
    38     5     1    1
    39    52    55    1
    40    52     4    1
    41     3     2    1
    42     3    40    1
    43     2     4    1
    44     2     1    1
    45    39    38    1
    46    58    56    1
    47     4    56    1
    48     4    60    1
    49    38    36   ar
    50    38    29   ar
    51    37    36    1
    52     1    29    1
    53    43    40    1
    54    56    57    1
    55    56    59    1
    56    36    34   ar
    57    40    42    1
    58    40    41    1
    59    29    30   ar
    60    62    60    1
    61    60    61    1
    62    60    63    1
    63    34    35    1
    64    34    32   ar
    65    30    31    1
    66    30    32   ar
    67    32    33    1
    68     2    16    0
