@<TRIPOS>MOLECULE
1
 22 21 0 0 0
SMALL
GASTEIGER

@<TRIPOS>ATOM
      1 P           0.6286    2.2316    5.6689 P.3     1  UNL1       -0.1067
      2 C          -0.7163    2.3462    4.3956 C.3     1  UNL1       -0.0351
      3 C          -2.1644    2.3868    4.8721 C.3     1  UNL1       -0.0613
      4 C           0.1372    3.6415    6.7638 C.3     1  UNL1       -0.0351
      5 C           1.0642    3.8283    7.9532 C.3     1  UNL1       -0.0613
      6 C           0.0246    0.8278    6.7184 C.3     1  UNL1       -0.0351
      7 C          -0.2014   -0.4710    5.9571 C.3     1  UNL1       -0.0613
      8 H          -0.5063    3.2511    3.8159 H       1  UNL1        0.0310
      9 H          -0.5633    1.4892    3.7327 H       1  UNL1        0.0310
     10 H          -2.3705    3.2927    5.4358 H       1  UNL1        0.0233
     11 H          -2.8217    2.3796    4.0038 H       1  UNL1        0.0233
     12 H          -2.4127    1.5268    5.4878 H       1  UNL1        0.0233
     13 H           0.1630    4.5363    6.1381 H       1  UNL1        0.0310
     14 H          -0.8888    3.4783    7.1035 H       1  UNL1        0.0310
     15 H           0.9923    2.9881    8.6409 H       1  UNL1        0.0233
     16 H           2.0858    3.9158    7.5949 H       1  UNL1        0.0233
     17 H           0.8071    4.7354    8.4968 H       1  UNL1        0.0233
     18 H           0.7700    0.6730    7.4985 H       1  UNL1        0.0310
     19 H          -0.9002    1.1540    7.2047 H       1  UNL1        0.0310
     20 H          -0.3621   -1.2918    6.6540 H       1  UNL1        0.0233
     21 H          -1.0709   -0.4000    5.3094 H       1  UNL1        0.0233
     22 H           0.6580   -0.7031    5.3346 H       1  UNL1        0.0233
@<TRIPOS>BOND
     1     9     2    1
     2     8     2    1
     3    11     3    1
     4     2     3    1
     5     2     1    1
     6     3    10    1
     7     3    12    1
     8    21     7    1
     9    22     7    1
    10     1     6    1
    11     1     4    1
    12     7    20    1
    13     7     6    1
    14    13     4    1
    15     6    19    1
    16     6    18    1
    17     4    14    1
    18     4     5    1
    19    16     5    1
    20     5    17    1
    21     5    15    1
