@<TRIPOS>MOLECULE
1
 22 21 0 0 0
SMALL
GASTEIGER

@<TRIPOS>ATOM
      1 P           4.1351    1.8080    6.0009 P.3     1  UNL1       -0.1067
      2 C           5.3481    3.0936    6.5597 C.3     1  UNL1       -0.0351
      3 C           4.7857    4.2126    7.4220 C.3     1  UNL1       -0.0613
      4 C           3.6599    1.0429    7.6174 C.3     1  UNL1       -0.0351
      5 C           3.2207   -0.4077    7.4515 C.3     1  UNL1       -0.0613
      6 C           5.3394    0.5425    5.3596 C.3     1  UNL1       -0.0351
      7 C           6.5114    0.1361    6.2477 C.3     1  UNL1       -0.0613
      8 H           6.1355    2.5718    7.1098 H       1  UNL1        0.0310
      9 H           5.7838    3.5126    5.6483 H       1  UNL1        0.0310
     10 H           5.5827    4.9033    7.6928 H       1  UNL1        0.0233
     11 H           4.0273    4.7640    6.8745 H       1  UNL1        0.0233
     12 H           4.3518    3.8189    8.3384 H       1  UNL1        0.0233
     13 H           4.4956    1.1274    8.3180 H       1  UNL1        0.0310
     14 H           2.8350    1.6436    8.0044 H       1  UNL1        0.0310
     15 H           2.6510   -0.7401    8.3179 H       1  UNL1        0.0233
     16 H           2.6021   -0.5060    6.5622 H       1  UNL1        0.0233
     17 H           4.0772   -1.0674    7.3437 H       1  UNL1        0.0233
     18 H           4.7309   -0.3328    5.1220 H       1  UNL1        0.0310
     19 H           5.7278    0.9244    4.4138 H       1  UNL1        0.0310
     20 H           6.1979   -0.0898    7.2633 H       1  UNL1        0.0233
     21 H           6.9746   -0.7573    5.8314 H       1  UNL1        0.0233
     22 H           7.2710    0.9128    6.2823 H       1  UNL1        0.0233
@<TRIPOS>BOND
     1    19     6    1
     2    18     6    1
     3     6     1    1
     4     6     7    1
     5     9     2    1
     6    21     7    1
     7     1     2    1
     8     1     4    1
     9     7    22    1
    10     7    20    1
    11     2     8    1
    12     2     3    1
    13    16     5    1
    14    11     3    1
    15    17     5    1
    16     3    10    1
    17     3    12    1
    18     5     4    1
    19     5    15    1
    20     4    14    1
    21     4    13    1
