@<TRIPOS>MOLECULE
1
 61 61 0 0 0
SMALL
GASTEIGER

@<TRIPOS>ATOM
      1 P           2.4486    2.9962    3.6362 P.3     1  UNL1        0.0000
      2 SI          3.9640    3.2408    0.9442 Si      1  UNL1        0.0000
      3 SI          0.8443    2.5272    0.9917 Si      1  UNL1        0.0000
      4 SI          3.1402    5.5924    5.1182 Si      1  UNL1        0.0000
      5 SI          0.3185    4.1420    5.6524 Si      1  UNL1        0.0000
      6 C           2.2728    3.5173    1.8577 C.3     1  UNL1        0.0000
      7 C           1.9421    5.0161    1.9177 C.3     1  UNL1        0.0000
      8 C           1.0778    5.2737    3.1431 C.3     1  UNL1        0.0000
      9 C           1.7000    4.5470    4.3439 C.3     1  UNL1        0.0000
     10 C           5.4437    3.5712    2.1188 C.3     1  UNL1        0.0000
     11 C           4.1187    4.5372   -0.4562 C.3     1  UNL1        0.0000
     12 C           4.2148    1.5132    0.1884 C.3     1  UNL1        0.0000
     13 C           0.8853    2.9123   -0.8844 C.3     1  UNL1        0.0000
     14 C          -0.9329    3.0424    1.4875 C.3     1  UNL1        0.0000
     15 C           1.0093    0.6524    1.2623 C.3     1  UNL1        0.0000
     16 C           2.4301    6.9480    6.2637 C.3     1  UNL1        0.0000
     17 C           4.2083    6.6159    3.8989 C.3     1  UNL1        0.0000
     18 C           4.3285    4.4594    6.0987 C.3     1  UNL1        0.0000
     19 C          -0.9566    5.5700    5.6105 C.3     1  UNL1        0.0000
     20 C          -0.6256    2.5453    5.1997 C.3     1  UNL1        0.0000
     21 C           0.9317    4.0145    7.4577 C.3     1  UNL1        0.0000
     22 H           2.8571    5.5989    2.0032 H       1  UNL1        0.0000
     23 H           1.4303    5.3382    1.0090 H       1  UNL1        0.0000
     24 H           0.0781    4.8877    2.9543 H       1  UNL1        0.0000
     25 H           0.9887    6.3442    3.3380 H       1  UNL1        0.0000
     26 H           6.0002    4.4605    1.8375 H       1  UNL1        0.0000
     27 H           6.1372    2.7368    2.0951 H       1  UNL1        0.0000
     28 H           5.1099    3.6949    3.1466 H       1  UNL1        0.0000
     29 H           3.2906    4.4880   -1.1524 H       1  UNL1        0.0000
     30 H           5.0291    4.3637   -1.0207 H       1  UNL1        0.0000
     31 H           4.1641    5.5512   -0.0734 H       1  UNL1        0.0000
     32 H           4.2281    0.7602    0.9676 H       1  UNL1        0.0000
     33 H           5.1659    1.4727   -0.3348 H       1  UNL1        0.0000
     34 H           3.4379    1.2473   -0.5179 H       1  UNL1        0.0000
     35 H           0.0440    2.4304   -1.3723 H       1  UNL1        0.0000
     36 H           1.7883    2.5585   -1.3673 H       1  UNL1        0.0000
     37 H           0.8015    3.9764   -1.0806 H       1  UNL1        0.0000
     38 H          -1.6398    2.4023    0.9667 H       1  UNL1        0.0000
     39 H          -1.1577    4.0650    1.1997 H       1  UNL1        0.0000
     40 H          -1.1248    2.9378    2.5485 H       1  UNL1        0.0000
     41 H           0.9565    0.1125    0.3227 H       1  UNL1        0.0000
     42 H           0.2127    0.2780    1.8968 H       1  UNL1        0.0000
     43 H           1.9510    0.4007    1.7396 H       1  UNL1        0.0000
     44 H           3.2391    7.5402    6.6797 H       1  UNL1        0.0000
     45 H           1.8600    6.5443    7.0899 H       1  UNL1        0.0000
     46 H           1.7845    7.6275    5.7169 H       1  UNL1        0.0000
     47 H           4.7391    6.0141    3.1712 H       1  UNL1        0.0000
     48 H           4.9528    7.1687    4.4658 H       1  UNL1        0.0000
     49 H           3.6110    7.3462    3.3618 H       1  UNL1        0.0000
     50 H           3.9685    3.4324    6.1211 H       1  UNL1        0.0000
     51 H           4.4384    4.7990    7.1232 H       1  UNL1        0.0000
     52 H           5.3207    4.4479    5.6575 H       1  UNL1        0.0000
     53 H          -1.7034    5.4190    6.3835 H       1  UNL1        0.0000
     54 H          -1.4803    5.6281    4.6625 H       1  UNL1        0.0000
     55 H          -0.4932    6.5333    5.7894 H       1  UNL1        0.0000
     56 H          -0.6856    1.8782    6.0531 H       1  UNL1        0.0000
     57 H          -0.1178    1.9980    4.4083 H       1  UNL1        0.0000
     58 H          -1.6431    2.7501    4.8807 H       1  UNL1        0.0000
     59 H           0.5690    3.1008    7.9157 H       1  UNL1        0.0000
     60 H           0.5574    4.8405    8.0539 H       1  UNL1        0.0000
     61 H           2.0112    4.0078    7.5399 H       1  UNL1        0.0000
@<TRIPOS>BOND
     1    35    13    1
     2    36    13    1
     3    29    11    1
     4    37    13    1
     5    30    11    1
     6    13     3    1
     7    34    12    1
     8    11    31    1
     9    11     2    1
    10    33    12    1
    11    12     2    1
    12    12    32    1
    13    41    15    1
    14     2     6    1
    15     2    10    1
    16    38    14    1
    17     3    15    1
    18     3    14    1
    19     3     6    1
    20    23     7    1
    21    39    14    1
    22    15    43    1
    23    15    42    1
    24    14    40    1
    25    26    10    1
    26     6     7    1
    27     6     1    1
    28     7    22    1
    29     7     8    1
    30    27    10    1
    31    10    28    1
    32    24     8    1
    33     8    25    1
    34     8     9    1
    35    47    17    1
    36    49    17    1
    37     1     9    1
    38    17    48    1
    39    17     4    1
    40     9     4    1
    41     9     5    1
    42    57    20    1
    43    54    19    1
    44    58    20    1
    45     4    18    1
    46     4    16    1
    47    20     5    1
    48    20    56    1
    49    19     5    1
    50    19    55    1
    51    19    53    1
    52     5    21    1
    53    52    18    1
    54    46    16    1
    55    18    50    1
    56    18    51    1
    57    16    44    1
    58    16    45    1
    59    21    61    1
    60    21    59    1
    61    21    60    1
