@<TRIPOS>MOLECULE
1
 61 61 0 0 0
SMALL
GASTEIGER

@<TRIPOS>ATOM
      1 P           5.7891    2.0828   10.9128 P.3     1  UNL1        0.0000
      2 SI          3.3749    1.3484    9.1210 Si      1  UNL1        0.0000
      3 SI          2.9241    2.1632   12.2173 Si      1  UNL1        0.0000
      4 SI          7.8609    3.2942    8.9343 Si      1  UNL1        0.0000
      5 SI          6.9332    4.9307   11.5790 Si      1  UNL1        0.0000
      6 C           3.9959    2.4387   10.6085 C.3     1  UNL1        0.0000
      7 C           3.9442    3.9221   10.2106 C.3     1  UNL1        0.0000
      8 C           5.2050    4.2586    9.4330 C.3     1  UNL1        0.0000
      9 C           6.4096    3.6707   10.1864 C.3     1  UNL1        0.0000
     10 C           3.6679   -0.4925    9.4897 C.3     1  UNL1        0.0000
     11 C           1.5215    1.7214    8.8301 C.3     1  UNL1        0.0000
     12 C           4.1792    1.7079    7.4191 C.3     1  UNL1        0.0000
     13 C           3.9668    2.3221   13.8094 C.3     1  UNL1        0.0000
     14 C           1.9565    0.5252   12.3260 C.3     1  UNL1        0.0000
     15 C           1.6032    3.5500   12.2630 C.3     1  UNL1        0.0000
     16 C           7.5343    4.2847    7.3255 C.3     1  UNL1        0.0000
     17 C           9.6143    3.7749    9.5057 C.3     1  UNL1        0.0000
     18 C           7.9264    1.4484    8.4480 C.3     1  UNL1        0.0000
     19 C           7.6369    6.4784   10.6914 C.3     1  UNL1        0.0000
     20 C           8.1965    4.2228   12.8079 C.3     1  UNL1        0.0000
     21 C           5.5193    5.6358   12.6647 C.3     1  UNL1        0.0000
     22 H           3.0557    4.1344    9.6145 H       1  UNL1        0.0000
     23 H           3.9004    4.5463   11.0985 H       1  UNL1        0.0000
     24 H           5.3085    5.3387    9.3163 H       1  UNL1        0.0000
     25 H           5.1314    3.8261    8.4390 H       1  UNL1        0.0000
     26 H           2.8269   -0.9443   10.0014 H       1  UNL1        0.0000
     27 H           4.5472   -0.6256   10.1139 H       1  UNL1        0.0000
     28 H           3.8275   -1.0526    8.5742 H       1  UNL1        0.0000
     29 H           1.3783    2.6928    8.3676 H       1  UNL1        0.0000
     30 H           0.9372    1.7040    9.7420 H       1  UNL1        0.0000
     31 H           1.1010    0.9826    8.1560 H       1  UNL1        0.0000
     32 H           3.8516    0.9525    6.7098 H       1  UNL1        0.0000
     33 H           5.2630    1.6802    7.4424 H       1  UNL1        0.0000
     34 H           3.8735    2.6696    7.0179 H       1  UNL1        0.0000
     35 H           4.9738    2.6805   13.6082 H       1  UNL1        0.0000
     36 H           4.0679    1.3581   14.2972 H       1  UNL1        0.0000
     37 H           3.5034    2.9964   14.5231 H       1  UNL1        0.0000
     38 H           1.3757    0.5259   13.2438 H       1  UNL1        0.0000
     39 H           2.6072   -0.3387   12.3620 H       1  UNL1        0.0000
     40 H           1.2641    0.3861   11.5042 H       1  UNL1        0.0000
     41 H           2.0227    4.5152   12.5264 H       1  UNL1        0.0000
     42 H           0.8516    3.3130   13.0092 H       1  UNL1        0.0000
     43 H           1.0929    3.6631   11.3131 H       1  UNL1        0.0000
     44 H           6.7464    3.8469    6.7216 H       1  UNL1        0.0000
     45 H           8.4333    4.2957    6.7179 H       1  UNL1        0.0000
     46 H           7.2620    5.3165    7.5188 H       1  UNL1        0.0000
     47 H           9.9740    3.1271   10.2953 H       1  UNL1        0.0000
     48 H           9.6863    4.7975    9.8554 H       1  UNL1        0.0000
     49 H          10.2987    3.6652    8.6697 H       1  UNL1        0.0000
     50 H           8.6531    0.9254    9.0604 H       1  UNL1        0.0000
     51 H           8.2246    1.3264    7.4105 H       1  UNL1        0.0000
     52 H           6.9755    0.9394    8.5877 H       1  UNL1        0.0000
     53 H           7.8835    6.2983    9.6513 H       1  UNL1        0.0000
     54 H           8.5383    6.8228   11.1874 H       1  UNL1        0.0000
     55 H           6.9259    7.2980   10.7223 H       1  UNL1        0.0000
     56 H           7.8123    3.3335   13.3009 H       1  UNL1        0.0000
     57 H           8.4142    4.9560   13.5781 H       1  UNL1        0.0000
     58 H           9.1343    3.9575   12.3370 H       1  UNL1        0.0000
     59 H           4.9415    4.8694   13.1689 H       1  UNL1        0.0000
     60 H           4.8347    6.2604   12.0986 H       1  UNL1        0.0000
     61 H           5.9578    6.2660   13.4343 H       1  UNL1        0.0000
@<TRIPOS>BOND
     1    32    12    1
     2    45    16    1
     3    44    16    1
     4    34    12    1
     5    16    46    1
     6    16     4    1
     7    51    18    1
     8    12    33    1
     9    12     2    1
    10    31    11    1
    11    29    11    1
    12    25     8    1
    13    18    52    1
    14    18     4    1
    15    18    50    1
    16    28    10    1
    17    49    17    1
    18    11     2    1
    19    11    30    1
    20     4    17    1
    21     4     9    1
    22     2    10    1
    23     2     6    1
    24    24     8    1
    25     8     9    1
    26     8     7    1
    27    10    26    1
    28    10    27    1
    29    17    48    1
    30    17    47    1
    31    22     7    1
    32    53    19    1
    33     9     1    1
    34     9     5    1
    35     7     6    1
    36     7    23    1
    37     6     1    1
    38     6     3    1
    39    19    55    1
    40    19    54    1
    41    19     5    1
    42    43    15    1
    43    40    14    1
    44     5    21    1
    45     5    20    1
    46    60    21    1
    47     3    15    1
    48     3    14    1
    49     3    13    1
    50    15    41    1
    51    15    42    1
    52    14    39    1
    53    14    38    1
    54    58    20    1
    55    21    59    1
    56    21    61    1
    57    20    56    1
    58    20    57    1
    59    35    13    1
    60    13    36    1
    61    13    37    1
