@<TRIPOS>MOLECULE
1
 13 12 0 0 0
SMALL
GASTEIGER

@<TRIPOS>ATOM
      1 P           6.9750    8.6382    6.2471 P.3     1  UNL1       -0.1154
      2 C           8.6502    9.0539    5.6239 C.3     1  UNL1       -0.0447
      3 H           8.7554    8.7186    4.5935 H       1  UNL1        0.0277
      4 H           9.3800    8.5314    6.2416 H       1  UNL1        0.0277
      5 H           8.8262   10.1283    5.6765 H       1  UNL1        0.0277
      6 C           6.9641    9.5459    7.8332 C.3     1  UNL1       -0.0447
      7 H           5.9816    9.4442    8.2923 H       1  UNL1        0.0277
      8 H           7.1863   10.6001    7.6635 H       1  UNL1        0.0277
      9 H           7.7095    9.1146    8.4990 H       1  UNL1        0.0277
     10 C           5.9212    9.7501    5.2327 C.3     1  UNL1       -0.0447
     11 H           5.8975    9.4039    4.2013 H       1  UNL1        0.0277
     12 H           6.2928   10.7742    5.2630 H       1  UNL1        0.0277
     13 H           4.9094    9.7163    5.6343 H       1  UNL1        0.0277
@<TRIPOS>BOND
     1    11    10    1
     2     3     2    1
     3    10    12    1
     4    10    13    1
     5    10     1    1
     6     2     5    1
     7     2     4    1
     8     2     1    1
     9     1     6    1
    10     8     6    1
    11     6     7    1
    12     6     9    1
