@<TRIPOS>MOLECULE
1
 13 12 0 0 0
SMALL
GASTEIGER

@<TRIPOS>ATOM
      1 P          14.5309   -1.3263   20.5399 P.3     1  UNL1       -0.1154
      2 C          15.0542   -0.8727   18.8418 C.3     1  UNL1       -0.0447
      3 C          12.7091   -1.2476   20.3866 C.3     1  UNL1       -0.0447
      4 C          14.8509    0.2336   21.4429 C.3     1  UNL1       -0.0447
      5 H          16.1330   -0.7406   18.8085 H       1  UNL1        0.0277
      6 H          14.7768   -1.6607   18.1468 H       1  UNL1        0.0277
      7 H          14.5732    0.0552   18.5367 H       1  UNL1        0.0277
      8 H          12.4174   -0.3038   19.9291 H       1  UNL1        0.0277
      9 H          12.3450   -2.0663   19.7726 H       1  UNL1        0.0277
     10 H          12.2611   -1.3206   21.3737 H       1  UNL1        0.0277
     11 H          15.9167    0.4468   21.4381 H       1  UNL1        0.0277
     12 H          14.3193    1.0562   20.9664 H       1  UNL1        0.0277
     13 H          14.5155    0.1304   22.4725 H       1  UNL1        0.0277
@<TRIPOS>BOND
     1     6     2    1
     2     7     2    1
     3     5     2    1
     4     2     1    1
     5     9     3    1
     6     8     3    1
     7     3     1    1
     8     3    10    1
     9     1     4    1
    10    12     4    1
    11    11     4    1
    12     4    13    1
