@<TRIPOS>MOLECULE
1
 34 36 0 0 0
SMALL
GASTEIGER

@<TRIPOS>ATOM
      1 P           4.2333    6.9158    3.4481 P.3     1  UNL1       -0.0131
      2 C           3.5307    8.0750    4.6663 C.ar    1  UNL1       -0.0147
      3 C           2.1447    8.1937    4.6887 C.ar    1  UNL1       -0.0535
      4 H           1.5469    7.5561    4.0535 H       1  UNL1        0.0624
      5 C           1.5408    9.1230    5.5146 C.ar    1  UNL1       -0.0611
      6 H           0.4639    9.2063    5.5334 H       1  UNL1        0.0618
      7 C           2.3155    9.9487    6.3135 C.ar    1  UNL1       -0.0617
      8 H           1.8456   10.6763    6.9592 H       1  UNL1        0.0618
      9 C           3.6960    9.8414    6.2828 C.ar    1  UNL1       -0.0611
     10 H           4.3018   10.4866    6.9030 H       1  UNL1        0.0618
     11 C           4.3069    8.9089    5.4627 C.ar    1  UNL1       -0.0535
     12 H           5.3849    8.8292    5.4519 H       1  UNL1        0.0624
     13 C           4.2161    8.0653    2.0204 C.ar    1  UNL1       -0.0147
     14 C           3.4958    7.8001    0.8642 C.ar    1  UNL1       -0.0535
     15 H           2.9133    6.8939    0.7861 H       1  UNL1        0.0624
     16 C           3.4975    8.7080   -0.1815 C.ar    1  UNL1       -0.0611
     17 H           2.9335    8.4929   -1.0770 H       1  UNL1        0.0618
     18 C           4.2151    9.8860   -0.0790 C.ar    1  UNL1       -0.0617
     19 H           4.2185   10.5923   -0.8962 H       1  UNL1        0.0618
     20 C           4.9254   10.1633    1.0792 C.ar    1  UNL1       -0.0611
     21 H           5.4813   11.0855    1.1658 H       1  UNL1        0.0618
     22 C           4.9227    9.2626    2.1257 C.ar    1  UNL1       -0.0535
     23 H           5.4751    9.4809    3.0293 H       1  UNL1        0.0624
     24 C           6.0052    6.8315    3.8498 C.ar    1  UNL1       -0.0147
     25 C           6.9826    6.9711    2.8701 C.ar    1  UNL1       -0.0535
     26 H           6.6994    7.2089    1.8538 H       1  UNL1        0.0624
     27 C           8.3169    6.8028    3.1967 C.ar    1  UNL1       -0.0611
     28 H           9.0729    6.9148    2.4332 H       1  UNL1        0.0618
     29 C           8.6826    6.4849    4.4939 C.ar    1  UNL1       -0.0617
     30 H           9.7253    6.3550    4.7442 H       1  UNL1        0.0618
     31 C           7.7091    6.3164    5.4664 C.ar    1  UNL1       -0.0611
     32 H           7.9930    6.0486    6.4738 H       1  UNL1        0.0618
     33 C           6.3746    6.4784    5.1464 C.ar    1  UNL1       -0.0535
     34 H           5.5995    6.3141    5.8810 H       1  UNL1        0.0624
@<TRIPOS>BOND
     1    17    16    1
     2    19    18    1
     3    16    18   ar
     4    16    14   ar
     5    18    20   ar
     6    15    14    1
     7    14    13   ar
     8    20    21    1
     9    20    22   ar
    10    26    25    1
    11    13    22   ar
    12    13     1    1
    13    22    23    1
    14    28    27    1
    15    25    27   ar
    16    25    24   ar
    17    27    29   ar
    18     1    24    1
    19     1     2    1
    20    24    33   ar
    21     4     3    1
    22    29    30    1
    23    29    31   ar
    24     2     3   ar
    25     2    11   ar
    26     3     5   ar
    27    33    31   ar
    28    33    34    1
    29    12    11    1
    30    11     9   ar
    31    31    32    1
    32     5     6    1
    33     5     7   ar
    34     9     7   ar
    35     9    10    1
    36     7     8    1
