@<TRIPOS>MOLECULE
1
 34 36 0 0 0
SMALL
GASTEIGER

@<TRIPOS>ATOM
      1 P           4.1677    4.3186    4.9419 P.3     1  UNL1       -0.0131
      2 C           3.2554    3.6028    6.3530 C.ar    1  UNL1       -0.0147
      3 C           2.9219    4.3593    7.4724 C.ar    1  UNL1       -0.0535
      4 H           3.1918    5.4045    7.5217 H       1  UNL1        0.0624
      5 C           2.2392    3.7761    8.5253 C.ar    1  UNL1       -0.0611
      6 H           1.9792    4.3713    9.3886 H       1  UNL1        0.0618
      7 C           1.8904    2.4370    8.4749 C.ar    1  UNL1       -0.0617
      8 H           1.3549    1.9870    9.2978 H       1  UNL1        0.0618
      9 C           2.2332    1.6759    7.3688 C.ar    1  UNL1       -0.0611
     10 H           1.9699    0.6296    7.3284 H       1  UNL1        0.0618
     11 C           2.9116    2.2532    6.3110 C.ar    1  UNL1       -0.0535
     12 H           3.1942    1.6590    5.4508 H       1  UNL1        0.0624
     13 C           3.9019    6.0960    5.2381 C.ar    1  UNL1       -0.0147
     14 C           2.6508    6.5917    4.8796 C.ar    1  UNL1       -0.0535
     15 H           1.9197    5.9104    4.4556 H       1  UNL1        0.0624
     16 C           2.3405    7.9228    5.0820 C.ar    1  UNL1       -0.0611
     17 H           1.3683    8.3027    4.8022 H       1  UNL1        0.0618
     18 C           3.2806    8.7709    5.6474 C.ar    1  UNL1       -0.0617
     19 H           3.0438    9.8133    5.8022 H       1  UNL1        0.0618
     20 C           4.5214    8.2796    6.0178 C.ar    1  UNL1       -0.0611
     21 H           5.2484    8.9402    6.4681 H       1  UNL1        0.0618
     22 C           4.8350    6.9460    5.8168 C.ar    1  UNL1       -0.0535
     23 H           5.8007    6.5631    6.1135 H       1  UNL1        0.0624
     24 C           5.9023    4.0315    5.4043 C.ar    1  UNL1       -0.0147
     25 C           6.8962    4.6987    4.6908 C.ar    1  UNL1       -0.0535
     26 H           6.6160    5.3901    3.9110 H       1  UNL1        0.0624
     27 C           8.2279    4.4627    4.9767 C.ar    1  UNL1       -0.0611
     28 H           8.9963    4.9805    4.4207 H       1  UNL1        0.0618
     29 C           8.5786    3.5583    5.9663 C.ar    1  UNL1       -0.0617
     30 H           9.6201    3.3702    6.1833 H       1  UNL1        0.0618
     31 C           7.5922    2.8878    6.6697 C.ar    1  UNL1       -0.0611
     32 H           7.8630    2.1748    7.4346 H       1  UNL1        0.0618
     33 C           6.2564    3.1181    6.3917 C.ar    1  UNL1       -0.0535
     34 H           5.4918    2.5803    6.9327 H       1  UNL1        0.0624
@<TRIPOS>BOND
     1    26    25    1
     2    28    27    1
     3    15    14    1
     4    25    27   ar
     5    25    24   ar
     6    17    16    1
     7    14    16   ar
     8    14    13   ar
     9     1    13    1
    10     1    24    1
    11     1     2    1
    12    27    29   ar
    13    16    18   ar
    14    13    22   ar
    15    24    33   ar
    16    12    11    1
    17    18    19    1
    18    18    20   ar
    19    22    20   ar
    20    22    23    1
    21    29    30    1
    22    29    31   ar
    23    20    21    1
    24    11     2   ar
    25    11     9   ar
    26     2     3   ar
    27    33    31   ar
    28    33    34    1
    29    31    32    1
    30    10     9    1
    31     9     7   ar
    32     3     4    1
    33     3     5   ar
    34     7     5   ar
    35     7     8    1
    36     5     6    1
