@<TRIPOS>MOLECULE
1
 34 36 0 0 0
SMALL
GASTEIGER

@<TRIPOS>ATOM
      1 P          -0.3894    3.9495    3.9086 P.3     1  UNL1       -0.0131
      2 C           1.2907    4.5977    3.6052 C.ar    1  UNL1       -0.0147
      3 C           2.2357    3.7867    2.9899 C.ar    1  UNL1       -0.0535
      4 H           1.9457    2.8085    2.6317 H       1  UNL1        0.0624
      5 C           3.5305    4.2393    2.8114 C.ar    1  UNL1       -0.0611
      6 H           4.2569    3.6091    2.3200 H       1  UNL1        0.0618
      7 C           3.8919    5.4996    3.2565 C.ar    1  UNL1       -0.0617
      8 H           4.9012    5.8557    3.1120 H       1  UNL1        0.0618
      9 C           2.9574    6.3047    3.8879 C.ar    1  UNL1       -0.0611
     10 H           3.2390    7.2864    4.2402 H       1  UNL1        0.0618
     11 C           1.6624    5.8567    4.0686 C.ar    1  UNL1       -0.0535
     12 H           0.9365    6.4892    4.5603 H       1  UNL1        0.0624
     13 C          -0.1630    3.6420    5.6937 C.ar    1  UNL1       -0.0147
     14 C           0.2533    2.3668    6.0617 C.ar    1  UNL1       -0.0535
     15 H           0.3335    1.6034    5.2982 H       1  UNL1        0.0624
     16 C           0.5460    2.0805    7.3823 C.ar    1  UNL1       -0.0611
     17 H           0.8663    1.0877    7.6610 H       1  UNL1        0.0618
     18 C           0.4224    3.0676    8.3465 C.ar    1  UNL1       -0.0617
     19 H           0.6434    2.8457    9.3799 H       1  UNL1        0.0618
     20 C           0.0167    4.3414    7.9837 C.ar    1  UNL1       -0.0611
     21 H          -0.0758    5.1128    8.7342 H       1  UNL1        0.0618
     22 C          -0.2668    4.6345    6.6616 C.ar    1  UNL1       -0.0535
     23 H          -0.5764    5.6328    6.3886 H       1  UNL1        0.0624
     24 C          -1.4378    5.4321    3.8302 C.ar    1  UNL1       -0.0147
     25 C          -1.2214    6.3772    2.8285 C.ar    1  UNL1       -0.0535
     26 H          -0.3686    6.2703    2.1714 H       1  UNL1        0.0624
     27 C          -2.1002    7.4345    2.6744 C.ar    1  UNL1       -0.0611
     28 H          -1.9256    8.1697    1.9025 H       1  UNL1        0.0618
     29 C          -3.2052    7.5472    3.5042 C.ar    1  UNL1       -0.0617
     30 H          -3.8893    8.3739    3.3818 H       1  UNL1        0.0618
     31 C          -3.4379    6.5948    4.4844 C.ar    1  UNL1       -0.0611
     32 H          -4.3068    6.6720    5.1205 H       1  UNL1        0.0618
     33 C          -2.5638    5.5345    4.6450 C.ar    1  UNL1       -0.0535
     34 H          -2.7548    4.7779    5.3923 H       1  UNL1        0.0624
@<TRIPOS>BOND
     1    28    27    1
     2    26    25    1
     3     6     5    1
     4     4     3    1
     5    27    25   ar
     6    27    29   ar
     7     5     3   ar
     8     5     7   ar
     9    25    24   ar
    10     3     2   ar
    11     8     7    1
    12     7     9   ar
    13    30    29    1
    14    29    31   ar
    15     2     1    1
    16     2    11   ar
    17    24     1    1
    18    24    33   ar
    19     9    11   ar
    20     9    10    1
    21     1    13    1
    22    11    12    1
    23    31    33   ar
    24    31    32    1
    25    33    34    1
    26    15    14    1
    27    13    14   ar
    28    13    22   ar
    29    14    16   ar
    30    23    22    1
    31    22    20   ar
    32    16    17    1
    33    16    18   ar
    34    20    18   ar
    35    20    21    1
    36    18    19    1
