@<TRIPOS>MOLECULE
1
 34 36 0 0 0
SMALL
GASTEIGER

@<TRIPOS>ATOM
      1 P           2.4648    2.6002    2.5804 P.3     1  UNL1       -0.0131
      2 C           1.7402    2.3691    0.9131 C.ar    1  UNL1       -0.0147
      3 C           1.7108    3.3721   -0.0448 C.ar    1  UNL1       -0.0535
      4 H           2.1029    4.3516    0.1855 H       1  UNL1        0.0624
      5 C           1.1584    3.1306   -1.2916 C.ar    1  UNL1       -0.0611
      6 H           1.1365    3.9197   -2.0286 H       1  UNL1        0.0618
      7 C           0.6344    1.8861   -1.5913 C.ar    1  UNL1       -0.0617
      8 H           0.2042    1.6985   -2.5640 H       1  UNL1        0.0618
      9 C           0.6590    0.8791   -0.6382 C.ar    1  UNL1       -0.0611
     10 H           0.2499   -0.0940   -0.8677 H       1  UNL1        0.0618
     11 C           1.2048    1.1179    0.6073 C.ar    1  UNL1       -0.0535
     12 H           1.2240    0.3321    1.3505 H       1  UNL1        0.0624
     13 C           1.0869    1.8794    3.5329 C.ar    1  UNL1       -0.0147
     14 C          -0.0576    2.6637    3.6458 C.ar    1  UNL1       -0.0535
     15 H          -0.0668    3.6541    3.2129 H       1  UNL1        0.0624
     16 C          -1.1688    2.1804    4.3093 C.ar    1  UNL1       -0.0611
     17 H          -2.0513    2.7965    4.4001 H       1  UNL1        0.0618
     18 C          -1.1516    0.9069    4.8556 C.ar    1  UNL1       -0.0617
     19 H          -2.0189    0.5274    5.3763 H       1  UNL1        0.0618
     20 C          -0.0197    0.1192    4.7316 C.ar    1  UNL1       -0.0611
     21 H          -0.0053   -0.8768    5.1515 H       1  UNL1        0.0618
     22 C           1.0995    0.5993    4.0721 C.ar    1  UNL1       -0.0535
     23 H           1.9778   -0.0240    3.9824 H       1  UNL1        0.0624
     24 C           3.7613    1.3225    2.5939 C.ar    1  UNL1       -0.0147
     25 C           4.3123    0.8052    1.4270 C.ar    1  UNL1       -0.0535
     26 H           3.9306    1.1128    0.4634 H       1  UNL1        0.0624
     27 C           5.3549   -0.1028    1.4993 C.ar    1  UNL1       -0.0611
     28 H           5.7793   -0.5026    0.5898 H       1  UNL1        0.0618
     29 C           5.8571   -0.4936    2.7288 C.ar    1  UNL1       -0.0617
     30 H           6.6701   -1.2030    2.7793 H       1  UNL1        0.0618
     31 C           5.3257    0.0375    3.8942 C.ar    1  UNL1       -0.0611
     32 H           5.7289   -0.2541    4.8533 H       1  UNL1        0.0618
     33 C           4.2895    0.9488    3.8286 C.ar    1  UNL1       -0.0535
     34 H           3.8803    1.3976    4.7224 H       1  UNL1        0.0624
@<TRIPOS>BOND
     1     8     7    1
     2     6     5    1
     3     7     5   ar
     4     7     9   ar
     5     5     3   ar
     6    10     9    1
     7     9    11   ar
     8     3     4    1
     9     3     2   ar
    10    26    25    1
    11    28    27    1
    12    11     2   ar
    13    11    12    1
    14     2     1    1
    15    25    27   ar
    16    25    24   ar
    17    27    29   ar
    18     1    24    1
    19     1    13    1
    20    24    33   ar
    21    29    30    1
    22    29    31   ar
    23    15    14    1
    24    13    14   ar
    25    13    22   ar
    26    14    16   ar
    27    33    31   ar
    28    33    34    1
    29    31    32    1
    30    23    22    1
    31    22    20   ar
    32    16    17    1
    33    16    18   ar
    34    20    18   ar
    35    20    21    1
    36    18    19    1
