@<TRIPOS>MOLECULE
1
 34 36 0 0 0
SMALL
GASTEIGER

@<TRIPOS>ATOM
      1 P           9.2282    6.8487   13.0227 P.3     1  UNL1       -0.0131
      2 C          10.2803    5.6017   13.8294 C.ar    1  UNL1       -0.0147
      3 C          10.2180    4.2905   13.3741 C.ar    1  UNL1       -0.0535
      4 C          10.9964    3.3080   13.9594 C.ar    1  UNL1       -0.0611
      5 C          11.8479    3.6343   15.0010 C.ar    1  UNL1       -0.0617
      6 C          11.9268    4.9442   15.4495 C.ar    1  UNL1       -0.0611
      7 C          11.1486    5.9278   14.8685 C.ar    1  UNL1       -0.0535
      8 C           8.9417    8.0087   14.4003 C.ar    1  UNL1       -0.0147
      9 C           8.4828    7.4692   15.6003 C.ar    1  UNL1       -0.0535
     10 C           8.2270    8.2910   16.6806 C.ar    1  UNL1       -0.0611
     11 C           8.4132    9.6594   16.5704 C.ar    1  UNL1       -0.0617
     12 C           8.8521   10.2012   15.3751 C.ar    1  UNL1       -0.0611
     13 C           9.1136    9.3829   14.2908 C.ar    1  UNL1       -0.0535
     14 C          10.4036    7.7556   11.9727 C.ar    1  UNL1       -0.0147
     15 C           9.8791    8.7665   11.1704 C.ar    1  UNL1       -0.0535
     16 C          10.7089    9.5109   10.3543 C.ar    1  UNL1       -0.0611
     17 C          12.0665    9.2364   10.3175 C.ar    1  UNL1       -0.0617
     18 C          12.5886    8.2162   11.0950 C.ar    1  UNL1       -0.0611
     19 C          11.7634    7.4753   11.9235 C.ar    1  UNL1       -0.0535
     20 H           9.5489    4.0416   12.5609 H       1  UNL1        0.0624
     21 H          10.9303    2.2905   13.6048 H       1  UNL1        0.0618
     22 H          12.4526    2.8691   15.4654 H       1  UNL1        0.0618
     23 H          12.5973    5.1992   16.2575 H       1  UNL1        0.0618
     24 H          11.2092    6.9487   15.2202 H       1  UNL1        0.0624
     25 H           8.3335    6.4003   15.6798 H       1  UNL1        0.0624
     26 H           7.8838    7.8627   17.6115 H       1  UNL1        0.0618
     27 H           8.2161   10.3026   17.4153 H       1  UNL1        0.0618
     28 H           8.9932   11.2677   15.2838 H       1  UNL1        0.0618
     29 H           9.4604    9.8158   13.3642 H       1  UNL1        0.0624
     30 H           8.8133    8.9552   11.1856 H       1  UNL1        0.0624
     31 H          10.2949   10.2968    9.7413 H       1  UNL1        0.0618
     32 H          12.7164    9.8125    9.6754 H       1  UNL1        0.0618
     33 H          13.6451    7.9931   11.0562 H       1  UNL1        0.0618
     34 H          12.1760    6.6772   12.5238 H       1  UNL1        0.0624
@<TRIPOS>BOND
     1    32    17    1
     2    31    16    1
     3    17    16   ar
     4    17    18   ar
     5    16    15   ar
     6    33    18    1
     7    18    19   ar
     8    15    30    1
     9    15    14   ar
    10    19    14   ar
    11    19    34    1
    12    14     1    1
    13    20     3    1
    14     1     2    1
    15     1     8    1
    16    29    13    1
    17     3     2   ar
    18     3     4   ar
    19    21     4    1
    20     2     7   ar
    21     4     5   ar
    22    13     8   ar
    23    13    12   ar
    24     8     9   ar
    25     7    24    1
    26     7     6   ar
    27     5     6   ar
    28     5    22    1
    29    28    12    1
    30    12    11   ar
    31     6    23    1
    32     9    25    1
    33     9    10   ar
    34    11    10   ar
    35    11    27    1
    36    10    26    1
