@<TRIPOS>MOLECULE
2
 55 56 0 0 0
SMALL
GASTEIGER

@<TRIPOS>ATOM
      1 S           4.6354    5.0478    4.8455 S.2     1  UNL1        0.0000
      2 P           0.9023    7.4504    5.4954 P.3     1  UNL1        0.0000
      3 SI          2.3938    8.9681    3.3796 Si      1  UNL1        0.0000
      4 SI         -0.7676    7.9758    2.9527 Si      1  UNL1        0.0000
      5 N           2.1868    6.5119    5.0577 N.pl3   1  UNL1        0.0000
      6 O          -0.6829    3.6079    6.9535 O.3     1  UNL1        0.0000
      7 O          -1.9184    6.9061    6.8661 O.3     1  UNL1        0.0000
      8 O           0.1598    2.5533    5.1575 O.2     1  UNL1        0.0000
      9 O          -2.4382    5.2778    5.4036 O.2     1  UNL1        0.0000
     10 C           0.6409    8.5929    4.1162 C.3     1  UNL1        0.0000
     11 H           0.2845    9.5130    4.5892 H       1  UNL1        0.0000
     12 C           2.2422   10.6779    2.5438 C.3     1  UNL1        0.0000
     13 H           3.2131   10.9914    2.1767 H       1  UNL1        0.0000
     14 H           1.8978   11.4366    3.2396 H       1  UNL1        0.0000
     15 H           1.5627   10.6700    1.7006 H       1  UNL1        0.0000
     16 C           2.8546    7.6355    2.0977 C.3     1  UNL1        0.0000
     17 H           3.7527    7.9271    1.5630 H       1  UNL1        0.0000
     18 H           2.0705    7.4788    1.3648 H       1  UNL1        0.0000
     19 H           3.0557    6.6863    2.5826 H       1  UNL1        0.0000
     20 C           3.7760    9.1095    4.6857 C.3     1  UNL1        0.0000
     21 H           3.5255    8.5652    5.5915 H       1  UNL1        0.0000
     22 H           3.9725   10.1429    4.9560 H       1  UNL1        0.0000
     23 H           4.7016    8.6891    4.3040 H       1  UNL1        0.0000
     24 C          -0.7736    9.0285    1.3624 C.3     1  UNL1        0.0000
     25 H          -1.6262    8.7556    0.7492 H       1  UNL1        0.0000
     26 H           0.1191    8.8815    0.7652 H       1  UNL1        0.0000
     27 H          -0.8575   10.0874    1.5820 H       1  UNL1        0.0000
     28 C          -2.4192    8.3108    3.8578 C.3     1  UNL1        0.0000
     29 H          -2.9735    9.1138    3.3808 H       1  UNL1        0.0000
     30 H          -2.2585    8.5986    4.8931 H       1  UNL1        0.0000
     31 H          -3.0560    7.4312    3.8518 H       1  UNL1        0.0000
     32 C          -0.5328    6.1426    2.4895 C.3     1  UNL1        0.0000
     33 H          -1.1945    5.5005    3.0632 H       1  UNL1        0.0000
     34 H           0.4848    5.8099    2.6706 H       1  UNL1        0.0000
     35 H          -0.7514    5.9741    1.4393 H       1  UNL1        0.0000
     36 C          -0.1972    6.0104    5.5937 C.3     1  UNL1        0.0000
     37 C           0.5798    4.8882    5.5133 C.2     1  UNL1        0.0000
     38 C           1.9515    5.2265    5.1664 C.2     1  UNL1        0.0000
     39 C           0.0198    3.5488    5.8206 C.2     1  UNL1        0.0000
     40 C          -1.3927    2.4378    7.3365 C.3     1  UNL1        0.0000
     41 H          -2.3498    2.4095    6.8118 H       1  UNL1        0.0000
     42 H          -1.5487    2.5096    8.4102 H       1  UNL1        0.0000
     43 H          -0.8158    1.5459    7.0851 H       1  UNL1        0.0000
     44 C          -1.6235    5.9948    5.9303 C.2     1  UNL1        0.0000
     45 C          -3.2785    6.9628    7.2824 C.3     1  UNL1        0.0000
     46 H          -3.9405    6.8198    6.4264 H       1  UNL1        0.0000
     47 H          -3.4282    7.9435    7.7270 H       1  UNL1        0.0000
     48 H          -3.4696    6.1812    8.0201 H       1  UNL1        0.0000
     49 C           3.0508    4.3305    4.9756 C.ar    1  UNL1        0.0000
     50 C           3.1158    2.9640    4.8416 C.ar    1  UNL1        0.0000
     51 H           2.2521    2.3265    4.8598 H       1  UNL1        0.0000
     52 C           4.4253    2.4997    4.6454 C.ar    1  UNL1        0.0000
     53 H           4.6760    1.4616    4.5217 H       1  UNL1        0.0000
     54 C           5.3445    3.5072    4.6288 C.ar    1  UNL1        0.0000
     55 H           6.4057    3.4256    4.4985 H       1  UNL1        0.0000
@<TRIPOS>BOND
     1    25    24    1
     2    26    24    1
     3    24    27    1
     4    24     4    1
     5    18    16    1
     6    35    32    1
     7    17    16    1
     8    15    12    1
     9    16    19    1
    10    16     3    1
    11    13    12    1
    12    32    34    1
    13    32     4    1
    14    32    33    1
    15    12    14    1
    16    12     3    1
    17     4    28    1
    18     4    10    1
    19     3    10    1
    20     3    20    1
    21    29    28    1
    22    31    28    1
    23    28    30    1
    24    10    11    1
    25    10     2    1
    26    23    20    1
    27    55    54    1
    28    53    52    1
    29    54    52   ar
    30    54     1   ar
    31    52    50   ar
    32    20    22    1
    33    20    21    1
    34    50    51    1
    35    50    49   ar
    36     1    49   ar
    37    49    38    1
    38     5    38    1
    39     5     2    1
    40     8    39    2
    41    38    37    2
    42     9    44    2
    43     2    36    1
    44    37    36    1
    45    37    39    1
    46    36    44    1
    47    39     6    1
    48    44     7    1
    49    46    45    1
    50    41    40    1
    51     7    45    1
    52     6    40    1
    53    43    40    1
    54    45    47    1
    55    45    48    1
    56    40    42    1
