@<TRIPOS>MOLECULE
1
 62 63 0 0 0
SMALL
GASTEIGER

@<TRIPOS>ATOM
      1 P           6.1897    3.4675    5.7054 P.3     1  UNL1        0.0000
      2 SI          7.7642    2.0964    3.5339 Si      1  UNL1        0.0000
      3 SI          4.6312    3.0653    3.0300 Si      1  UNL1        0.0000
      4 N           7.3881    4.5370    5.2904 N.2     1  UNL1        0.0000
      5 N           9.2868    6.7284    5.0792 N.ar    1  UNL1        0.0000
      6 O           4.6071    7.3955    7.2133 O.3     1  UNL1        0.0000
      7 O           4.5442    8.0480    5.0643 O.2     1  UNL1        0.0000
      8 O           3.3082    3.5794    6.9103 O.3     1  UNL1        0.0000
      9 O           2.7168    5.5454    6.0003 O.2     1  UNL1        0.0000
     10 C           5.9914    2.4150    4.2346 C.3     1  UNL1        0.0000
     11 H           5.6315    1.4623    4.6353 H       1  UNL1        0.0000
     12 C           8.2373    3.4739    2.3008 C.3     1  UNL1        0.0000
     13 H           9.2251    3.2902    1.8897 H       1  UNL1        0.0000
     14 H           8.2502    4.4476    2.7785 H       1  UNL1        0.0000
     15 H           7.5424    3.5244    1.4698 H       1  UNL1        0.0000
     16 C           7.7059    0.4086    2.6441 C.3     1  UNL1        0.0000
     17 H           7.0346    0.4082    1.7945 H       1  UNL1        0.0000
     18 H           7.3912   -0.3850    3.3146 H       1  UNL1        0.0000
     19 H           8.6941    0.1513    2.2789 H       1  UNL1        0.0000
     20 C           9.1241    1.9442    4.8655 C.3     1  UNL1        0.0000
     21 H          10.0742    2.3171    4.4945 H       1  UNL1        0.0000
     22 H           9.2809    0.9097    5.1541 H       1  UNL1        0.0000
     23 H           8.8715    2.5077    5.7585 H       1  UNL1        0.0000
     24 C           4.8589    4.9029    2.5785 C.3     1  UNL1        0.0000
     25 H           5.8789    5.2380    2.7358 H       1  UNL1        0.0000
     26 H           4.2137    5.5449    3.1706 H       1  UNL1        0.0000
     27 H           4.6146    5.0749    1.5346 H       1  UNL1        0.0000
     28 C           2.9227    2.7239    3.8193 C.3     1  UNL1        0.0000
     29 H           2.4100    3.6485    4.0665 H       1  UNL1        0.0000
     30 H           3.0068    2.1352    4.7285 H       1  UNL1        0.0000
     31 H           2.2813    2.1766    3.1351 H       1  UNL1        0.0000
     32 C           4.6998    2.0245    1.4308 C.3     1  UNL1        0.0000
     33 H           3.8765    2.3034    0.7811 H       1  UNL1        0.0000
     34 H           4.6048    0.9637    1.6369 H       1  UNL1        0.0000
     35 H           5.6181    2.1754    0.8751 H       1  UNL1        0.0000
     36 C           4.9526    4.7940    5.8061 C.2     1  UNL1        0.0000
     37 C           5.5978    5.9841    5.6730 C.2     1  UNL1        0.0000
     38 C           7.0099    5.7941    5.3438 C.2     1  UNL1        0.0000
     39 C           4.8688    7.2623    5.9141 C.2     1  UNL1        0.0000
     40 C           3.7911    8.5025    7.5751 C.3     1  UNL1        0.0000
     41 H           4.2172    9.4304    7.1887 H       1  UNL1        0.0000
     42 H           3.7609    8.5134    8.6614 H       1  UNL1        0.0000
     43 H           2.7902    8.3677    7.1609 H       1  UNL1        0.0000
     44 C           3.5541    4.7071    6.2309 C.2     1  UNL1        0.0000
     45 C           1.9766    3.4244    7.3862 C.3     1  UNL1        0.0000
     46 H           1.7936    4.1141    8.2126 H       1  UNL1        0.0000
     47 H           1.8869    2.3958    7.7255 H       1  UNL1        0.0000
     48 H           1.2638    3.6313    6.5855 H       1  UNL1        0.0000
     49 C           7.9127    6.8689    5.0972 C.ar    1  UNL1        0.0000
     50 C           7.6276    8.1938    4.7654 C.ar    1  UNL1        0.0000
     51 H           6.6546    8.6217    4.6476 H       1  UNL1        0.0000
     52 C           8.8391    8.8393    4.5519 C.ar    1  UNL1        0.0000
     53 H           8.9767    9.8648    4.2725 H       1  UNL1        0.0000
     54 C           9.8494    7.9149    4.7612 C.ar    1  UNL1        0.0000
     55 C          10.0092    5.5302    5.4014 C.3     1  UNL1        0.0000
     56 H           9.9277    4.8035    4.5922 H       1  UNL1        0.0000
     57 H           9.5958    5.0773    6.3010 H       1  UNL1        0.0000
     58 H          11.0560    5.7692    5.5733 H       1  UNL1        0.0000
     59 C          11.3178    8.1269    4.6674 C.3     1  UNL1        0.0000
     60 H          11.7997    7.9861    5.6357 H       1  UNL1        0.0000
     61 H          11.5118    9.1431    4.3360 H       1  UNL1        0.0000
     62 H          11.7703    7.4372    3.9551 H       1  UNL1        0.0000
@<TRIPOS>BOND
     1    33    32    1
     2    35    32    1
     3    32    34    1
     4    32     3    1
     5    15    12    1
     6    27    24    1
     7    17    16    1
     8    13    12    1
     9    19    16    1
    10    12    14    1
    11    12     2    1
    12    24    25    1
    13    24     3    1
    14    24    26    1
    15    16    18    1
    16    16     2    1
    17     3    28    1
    18     3    10    1
    19    31    28    1
    20     2    10    1
    21     2    20    1
    22    28    29    1
    23    28    30    1
    24    62    59    1
    25    10    11    1
    26    10     1    1
    27    53    52    1
    28    61    59    1
    29    21    20    1
    30    52    54   ar
    31    52    50   ar
    32    56    55    1
    33    51    50    1
    34    59    54    1
    35    59    60    1
    36    54     5   ar
    37    50    49   ar
    38    20    22    1
    39    20    23    1
    40     7    39    2
    41     5    49   ar
    42     5    55    1
    43    49    38    1
    44     4    38    2
    45     4     1    1
    46    38    37    1
    47    55    58    1
    48    55    57    1
    49    37    36    2
    50    37    39    1
    51     1    36    1
    52    36    44    1
    53    39     6    1
    54     9    44    2
    55    44     8    1
    56    48    45    1
    57     8    45    1
    58    43    40    1
    59    41    40    1
    60     6    40    1
    61    45    47    1
    62    45    46    1
    63    40    42    1
