@<TRIPOS>MOLECULE
1
 18 18 0 0 0
SMALL
GASTEIGER

@<TRIPOS>ATOM
      1 P           1.2444   10.8296    3.2960 P.3     1  UNL1        0.0777
      2 N           2.5803   10.0225    4.0718 N.3     1  UNL1       -0.1854
      3 N           2.5257    9.9992    7.2123 N.ar    1  UNL1       -0.3492
      4 C           1.7235   10.4514    4.9534 C.3     1  UNL1        0.1365
      5 C           1.5871   10.5118    6.3365 C.ar    1  UNL1        0.0455
      6 C           0.5631   11.0739    7.1011 C.ar    1  UNL1       -0.0387
      7 H          -0.3127   11.5522    6.7118 H       1  UNL1        0.0636
      8 C           0.8986   10.8916    8.4358 C.ar    1  UNL1       -0.0409
      9 H           0.3311   11.2051    9.2892 H       1  UNL1        0.0635
     10 C           2.1168   10.2267    8.4765 C.ar    1  UNL1        0.0156
     11 C           3.7466    9.3450    6.8347 C.3     1  UNL1        0.0119
     12 H           3.8618    9.4034    5.7539 H       1  UNL1        0.0456
     13 H           3.7280    8.2950    7.1368 H       1  UNL1        0.0456
     14 H           4.5999    9.8307    7.3116 H       1  UNL1        0.0456
     15 C           2.9130    9.7999    9.6539 C.3     1  UNL1       -0.0243
     16 H           3.0870    8.7238    9.6349 H       1  UNL1        0.0292
     17 H           2.3851   10.0535   10.5683 H       1  UNL1        0.0292
     18 H           3.8845   10.2951    9.6636 H       1  UNL1        0.0292
@<TRIPOS>BOND
     1     1     2    1
     2     2     4    1
     3     4     5    1
     4    12    11    1
     5     5     6   ar
     6     5     3   ar
     7     7     6    1
     8    11    13    1
     9    11     3    1
    10    11    14    1
    11     6     8   ar
    12     3    10   ar
    13     8    10   ar
    14     8     9    1
    15    10    15    1
    16    16    15    1
    17    15    18    1
    18    15    17    1
