@<TRIPOS>MOLECULE
1
 82 85 0 0 0
SMALL
GASTEIGER

@<TRIPOS>ATOM
      1 P           4.3009    8.4466    4.2009 P.3     1  UNL1        0.0000
      2 P           8.1346    8.9846    1.9917 P.3     1  UNL1        0.0000
      3 SI          2.5501    6.3881    2.5737 Si      1  UNL1        0.0000
      4 SI          4.7732    5.5355    4.8323 Si      1  UNL1        0.0000
      5 N           5.6944    8.2903    3.3061 N.2     1  UNL1        0.5000
      6 N           6.6677    9.1984    1.3780 N.pl3   1  UNL1        0.5000
      7 O           3.4085    9.9593   -0.1860 O.3     1  UNL1        0.0000
      8 O           4.7547   11.5887    0.5749 O.2     1  UNL1        0.0000
      9 O           1.8232   10.8827    2.0977 O.3     1  UNL1        0.0000
     10 O           1.6231   10.1066    4.1922 O.2     1  UNL1        0.0000
     11 C           3.4738    6.8187    4.2071 C.3     1  UNL1        0.0000
     12 H           2.7182    6.9262    4.9917 H       1  UNL1        0.0000
     13 C           3.6644    6.5116    1.0286 C.3     1  UNL1        0.0000
     14 H           3.5080    5.6681    0.3628 H       1  UNL1        0.0000
     15 H           4.7160    6.5335    1.2931 H       1  UNL1        0.0000
     16 H           3.4537    7.4176    0.4674 H       1  UNL1        0.0000
     17 C           1.8877    4.6030    2.7550 C.3     1  UNL1        0.0000
     18 H           1.2026    4.5220    3.5927 H       1  UNL1        0.0000
     19 H           2.6743    3.8723    2.9015 H       1  UNL1        0.0000
     20 H           1.3396    4.3203    1.8620 H       1  UNL1        0.0000
     21 C           0.9872    7.4640    2.3316 C.3     1  UNL1        0.0000
     22 H           0.1790    6.8706    1.9142 H       1  UNL1        0.0000
     23 H           1.1691    8.2874    1.6475 H       1  UNL1        0.0000
     24 H           0.6343    7.8803    3.2704 H       1  UNL1        0.0000
     25 C           6.1953    6.2774    5.8530 C.3     1  UNL1        0.0000
     26 H           5.9047    6.5489    6.8618 H       1  UNL1        0.0000
     27 H           6.5649    7.1665    5.3537 H       1  UNL1        0.0000
     28 H           7.0171    5.5716    5.9307 H       1  UNL1        0.0000
     29 C           5.6205    4.6760    3.3537 C.3     1  UNL1        0.0000
     30 H           6.2931    3.8999    3.7051 H       1  UNL1        0.0000
     31 H           6.2149    5.3928    2.7966 H       1  UNL1        0.0000
     32 H           4.9185    4.2189    2.6667 H       1  UNL1        0.0000
     33 C           3.8323    4.2826    5.9235 C.3     1  UNL1        0.0000
     34 H           4.5003    3.4939    6.2516 H       1  UNL1        0.0000
     35 H           3.0073    3.8169    5.3973 H       1  UNL1        0.0000
     36 H           3.4300    4.7589    6.8121 H       1  UNL1        0.0000
     37 C           3.4824    9.4465    2.9139 C.2     1  UNL1        0.0000
     38 C           4.3609    9.6546    1.9105 C.2     1  UNL1        0.0000
     39 C           5.6367    8.9967    2.2008 C.2     1  UNL1        0.0000
     40 C           4.2101   10.5275    0.7216 C.2     1  UNL1        0.0000
     41 C           3.1927   10.7073   -1.3745 C.3     1  UNL1        0.0000
     42 H           2.7882   11.6916   -1.1313 H       1  UNL1        0.0000
     43 H           2.4841   10.1362   -1.9687 H       1  UNL1        0.0000
     44 H           4.1322   10.8358   -1.9161 H       1  UNL1        0.0000
     45 C           2.2250   10.1532    3.1438 C.2     1  UNL1        0.0000
     46 C           0.6308   11.6310    2.2919 C.3     1  UNL1        0.0000
     47 H          -0.2067   10.9596    2.4936 H       1  UNL1        0.0000
     48 H           0.4659   12.1854    1.3718 H       1  UNL1        0.0000
     49 H           0.7473   12.3127    3.1367 H       1  UNL1        0.0000
     50 C           8.6015    7.3096    2.5173 C.ar    1  UNL1        0.0000
     51 C           8.6094    6.3455    1.5136 C.ar    1  UNL1        0.0000
     52 H           8.3525    6.6383    0.5030 H       1  UNL1        0.0000
     53 C           8.9448    5.0392    1.8145 C.ar    1  UNL1        0.0000
     54 H           8.9531    4.2895    1.0373 H       1  UNL1        0.0000
     55 C           9.2725    4.6960    3.1175 C.ar    1  UNL1        0.0000
     56 H           9.5439    3.6776    3.3527 H       1  UNL1        0.0000
     57 C           9.2468    5.6533    4.1179 C.ar    1  UNL1        0.0000
     58 H           9.4993    5.3806    5.1318 H       1  UNL1        0.0000
     59 C           8.9030    6.9624    3.8257 C.ar    1  UNL1        0.0000
     60 H           8.8721    7.7083    4.6057 H       1  UNL1        0.0000
     61 C           9.2471    9.4195    0.6387 C.ar    1  UNL1        0.0000
     62 C           8.7843   10.3072   -0.3243 C.ar    1  UNL1        0.0000
     63 H           7.7654   10.6592   -0.2585 H       1  UNL1        0.0000
     64 C           9.6259   10.7107   -1.3448 C.ar    1  UNL1        0.0000
     65 H           9.2700   11.3977   -2.0982 H       1  UNL1        0.0000
     66 C          10.9276   10.2378   -1.3974 C.ar    1  UNL1        0.0000
     67 H          11.5850   10.5551   -2.1934 H       1  UNL1        0.0000
     68 C          11.3908    9.3590   -0.4309 C.ar    1  UNL1        0.0000
     69 H          12.4059    8.9927   -0.4750 H       1  UNL1        0.0000
     70 C          10.5539    8.9503    0.5917 C.ar    1  UNL1        0.0000
     71 H          10.9068    8.2582    1.3444 H       1  UNL1        0.0000
     72 C           8.4953   10.1660    3.3192 C.ar    1  UNL1        0.0000
     73 C           7.5666   11.1607    3.6009 C.ar    1  UNL1        0.0000
     74 H           6.6360   11.1948    3.0524 H       1  UNL1        0.0000
     75 C           7.8437   12.1052    4.5735 C.ar    1  UNL1        0.0000
     76 H           7.1190   12.8731    4.7991 H       1  UNL1        0.0000
     77 C           9.0491   12.0647    5.2543 C.ar    1  UNL1        0.0000
     78 H           9.2601   12.7963    6.0198 H       1  UNL1        0.0000
     79 C           9.9878   11.0905    4.9524 C.ar    1  UNL1        0.0000
     80 H          10.9314   11.0679    5.4773 H       1  UNL1        0.0000
     81 C           9.7186   10.1440    3.9817 C.ar    1  UNL1        0.0000
     82 H          10.4525    9.3888    3.7370 H       1  UNL1        0.0000
@<TRIPOS>BOND
     1    67    66    1
     2    65    64    1
     3    43    41    1
     4    44    41    1
     5    66    64   ar
     6    66    68   ar
     7    41    42    1
     8    41     7    1
     9    64    62   ar
    10    69    68    1
    11    68    70   ar
    12    62    63    1
    13    62    61   ar
    14     7    40    1
    15    14    13    1
    16    16    13    1
    17    52    51    1
    18     8    40    2
    19    70    61   ar
    20    70    71    1
    21    61     2    1
    22    40    38    1
    23    13    15    1
    24    13     3    1
    25    54    53    1
    26    48    46    1
    27     6     2    1
    28     6    39    1
    29    51    53   ar
    30    51    50   ar
    31    23    21    1
    32    53    55   ar
    33    20    17    1
    34    38    39    1
    35    38    37    2
    36    22    21    1
    37     2    50    1
    38     2    72    1
    39     9    46    1
    40     9    45    1
    41    39     5    2
    42    46    47    1
    43    46    49    1
    44    21     3    1
    45    21    24    1
    46    50    59   ar
    47     3    17    1
    48     3    11    1
    49    32    29    1
    50    17    19    1
    51    17    18    1
    52    31    29    1
    53    37    45    1
    54    37     1    1
    55    74    73    1
    56    55    56    1
    57    55    57   ar
    58    45    10    2
    59     5     1    1
    60    72    73   ar
    61    72    81   ar
    62    29    30    1
    63    29     4    1
    64    73    75   ar
    65    82    81    1
    66    59    57   ar
    67    59    60    1
    68    81    79   ar
    69    57    58    1
    70     1    11    1
    71    11     4    1
    72    11    12    1
    73    75    76    1
    74    75    77   ar
    75     4    25    1
    76     4    33    1
    77    79    77   ar
    78    79    80    1
    79    77    78    1
    80    27    25    1
    81    35    33    1
    82    25    28    1
    83    25    26    1
    84    33    34    1
    85    33    36    1
