@<TRIPOS>MOLECULE
1
 34 36 0 0 0
SMALL
GASTEIGER

@<TRIPOS>ATOM
      1 P          -1.6423   13.8579    1.0868 P.3     1  UNL1       -0.0131
      2 C          -3.3009   14.6180    0.9810 C.ar    1  UNL1       -0.0147
      3 C          -4.2330   14.2065    1.9304 C.ar    1  UNL1       -0.0535
      4 H          -3.9373   13.4720    2.6683 H       1  UNL1        0.0624
      5 C          -3.6602   15.5743    0.0408 C.ar    1  UNL1       -0.0535
      6 H          -2.9415   15.9064   -0.6952 H       1  UNL1        0.0624
      7 C          -4.9408   16.1018    0.0444 C.ar    1  UNL1       -0.0611
      8 H          -5.2160   16.8444   -0.6906 H       1  UNL1        0.0618
      9 C          -5.8660   15.6811    0.9837 C.ar    1  UNL1       -0.0617
     10 H          -6.8634   16.0952    0.9824 H       1  UNL1        0.0618
     11 C          -5.5099   14.7315    1.9296 C.ar    1  UNL1       -0.0611
     12 H          -6.2287   14.4071    2.6673 H       1  UNL1        0.0618
     13 C          -0.8136   14.5530   -0.3755 C.ar    1  UNL1       -0.0147
     14 C          -0.1072   15.7343   -0.1735 C.ar    1  UNL1       -0.0535
     15 H          -0.0736   16.1578    0.8232 H       1  UNL1        0.0624
     16 C           0.5486   16.3447   -1.2253 C.ar    1  UNL1       -0.0611
     17 H           1.0988   17.2604   -1.0635 H       1  UNL1        0.0618
     18 C           0.5094   15.7721   -2.4871 C.ar    1  UNL1       -0.0617
     19 H           1.0296   16.2402   -3.3099 H       1  UNL1        0.0618
     20 C          -0.1883   14.5934   -2.6916 C.ar    1  UNL1       -0.0611
     21 H          -0.2120   14.1441   -3.6739 H       1  UNL1        0.0618
     22 C          -0.8515   13.9825   -1.6410 C.ar    1  UNL1       -0.0535
     23 H          -1.3919   13.0609   -1.8064 H       1  UNL1        0.0624
     24 C          -2.0474   12.1467    0.6112 C.ar    1  UNL1       -0.0147
     25 C          -1.2943   11.1151    1.1579 C.ar    1  UNL1       -0.0535
     26 H          -0.4851   11.3602    1.8292 H       1  UNL1        0.0624
     27 C          -1.5647    9.8009    0.8228 C.ar    1  UNL1       -0.0611
     28 H          -0.9739    9.0020    1.2471 H       1  UNL1        0.0618
     29 C          -2.5927    9.5089   -0.0581 C.ar    1  UNL1       -0.0617
     30 H          -2.8052    8.4833   -0.3224 H       1  UNL1        0.0618
     31 C          -3.3531   10.5335   -0.5994 C.ar    1  UNL1       -0.0611
     32 H          -4.1578   10.3053   -1.2836 H       1  UNL1        0.0618
     33 C          -3.0873   11.8490   -0.2656 C.ar    1  UNL1       -0.0535
     34 H          -3.6904   12.6460   -0.6795 H       1  UNL1        0.0624
@<TRIPOS>BOND
     1    21    20    1
     2    19    18    1
     3    20    18   ar
     4    20    22   ar
     5    18    16   ar
     6    23    22    1
     7    22    13   ar
     8    32    31    1
     9    16    17    1
    10    16    14   ar
    11     6     5    1
    12     8     7    1
    13    34    33    1
    14    31    33   ar
    15    31    29   ar
    16    13    14   ar
    17    13     1    1
    18    30    29    1
    19    33    24   ar
    20    14    15    1
    21    29    27   ar
    22     5     7   ar
    23     5     2   ar
    24     7     9   ar
    25    24     1    1
    26    24    25   ar
    27    27    25   ar
    28    27    28    1
    29     2     1    1
    30     2     3   ar
    31    10     9    1
    32     9    11   ar
    33    25    26    1
    34    11     3   ar
    35    11    12    1
    36     3     4    1
