@<TRIPOS>MOLECULE
1
 34 36 0 0 0
SMALL
GASTEIGER

@<TRIPOS>ATOM
      1 P           1.2921   14.3146    4.5894 P.3     1  UNL1       -0.0131
      2 C           1.9260   12.7572    5.2866 C.ar    1  UNL1       -0.0147
      3 C           1.5297   11.5579    4.7095 C.ar    1  UNL1       -0.0535
      4 H           0.8748   11.5845    3.8512 H       1  UNL1        0.0624
      5 C           1.9858   10.3553    5.2181 C.ar    1  UNL1       -0.0611
      6 H           1.6784    9.4244    4.7644 H       1  UNL1        0.0618
      7 C           2.8381   10.3451    6.3094 C.ar    1  UNL1       -0.0617
      8 H           3.1988    9.4075    6.7063 H       1  UNL1        0.0618
      9 C           3.2258   11.5388    6.8982 C.ar    1  UNL1       -0.0611
     10 H           3.8853   11.5295    7.7540 H       1  UNL1        0.0618
     11 C           2.7687   12.7429    6.3951 C.ar    1  UNL1       -0.0535
     12 H           3.0587   13.6736    6.8644 H       1  UNL1        0.0624
     13 C           0.9950   15.2318    6.1436 C.ar    1  UNL1       -0.0147
     14 C           1.7537   16.3121    6.5736 C.ar    1  UNL1       -0.0535
     15 H           2.5795   16.6680    5.9735 H       1  UNL1        0.0624
     16 C           1.4530   16.9355    7.7733 C.ar    1  UNL1       -0.0611
     17 H           2.0469   17.7754    8.1036 H       1  UNL1        0.0618
     18 C           0.3979   16.4860    8.5479 C.ar    1  UNL1       -0.0617
     19 H           0.1676   16.9753    9.4827 H       1  UNL1        0.0618
     20 C          -0.3655   15.4100    8.1208 C.ar    1  UNL1       -0.0611
     21 H          -1.1925   15.0615    8.7213 H       1  UNL1        0.0618
     22 C          -0.0699   14.7892    6.9235 C.ar    1  UNL1       -0.0535
     23 H          -0.6627   13.9548    6.5713 H       1  UNL1        0.0624
     24 C           2.7515   15.1707    3.9235 C.ar    1  UNL1       -0.0147
     25 C           2.4853   16.3302    3.1996 C.ar    1  UNL1       -0.0535
     26 H           1.4544   16.6417    3.0768 H       1  UNL1        0.0624
     27 C           3.5179   17.0645    2.6503 C.ar    1  UNL1       -0.0611
     28 H           3.3071   17.9634    2.0894 H       1  UNL1        0.0618
     29 C           4.8276   16.6376    2.8108 C.ar    1  UNL1       -0.0617
     30 H           5.6378   17.2029    2.3740 H       1  UNL1        0.0618
     31 C           5.0961   15.4796    3.5206 C.ar    1  UNL1       -0.0611
     32 H           6.1159   15.1423    3.6366 H       1  UNL1        0.0618
     33 C           4.0630   14.7457    4.0793 C.ar    1  UNL1       -0.0535
     34 H           4.2814   13.8425    4.6307 H       1  UNL1        0.0624
@<TRIPOS>BOND
     1    28    27    1
     2    30    29    1
     3    27    29   ar
     4    27    25   ar
     5    29    31   ar
     6    26    25    1
     7    25    24   ar
     8    31    32    1
     9    31    33   ar
    10     4     3    1
    11    24    33   ar
    12    24     1    1
    13    33    34    1
    14     1     2    1
    15     1    13    1
    16     3     5   ar
    17     3     2   ar
    18     6     5    1
    19     5     7   ar
    20     2    11   ar
    21    15    14    1
    22    13    14   ar
    23    13    22   ar
    24     7     8    1
    25     7     9   ar
    26    11    12    1
    27    11     9   ar
    28    23    22    1
    29    14    16   ar
    30     9    10    1
    31    22    20   ar
    32    16    17    1
    33    16    18   ar
    34    20    18   ar
    35    20    21    1
    36    18    19    1
