@<TRIPOS>MOLECULE
1
 13 12 0 0 0
SMALL
GASTEIGER

@<TRIPOS>ATOM
      1 P           6.5729   28.8695    6.9096 P.3     1  UNL1       -0.1154
      2 C           6.3015   30.5982    7.4570 C.3     1  UNL1       -0.0447
      3 H           6.3029   30.6676    8.5409 H       1  UNL1        0.0277
      4 H           5.3203   30.8956    7.0881 H       1  UNL1        0.0277
      5 H           7.0614   31.2615    7.0420 H       1  UNL1        0.0277
      6 C           8.4083   28.7361    7.0246 C.3     1  UNL1       -0.0447
      7 H           8.8870   29.5226    6.4409 H       1  UNL1        0.0277
      8 H           8.6977   27.7664    6.6210 H       1  UNL1        0.0277
      9 H           8.7353   28.8032    8.0603 H       1  UNL1        0.0277
     10 C           6.4945   29.2023    5.1018 C.3     1  UNL1       -0.0447
     11 H           7.0506   30.1149    4.8791 H       1  UNL1        0.0277
     12 H           5.4578   29.3256    4.8027 H       1  UNL1        0.0277
     13 H           6.9209   28.3731    4.5411 H       1  UNL1        0.0277
@<TRIPOS>BOND
     1    13    10    1
     2    12    10    1
     3    11    10    1
     4    10     1    1
     5     7     6    1
     6     8     6    1
     7     1     6    1
     8     1     2    1
     9     6     9    1
    10     5     2    1
    11     4     2    1
    12     2     3    1
