@<TRIPOS>MOLECULE
1
 13 12 0 0 0
SMALL
GASTEIGER

@<TRIPOS>ATOM
      1 P           3.4906   25.5051    8.6489 P.3     1  UNL1       -0.1154
      2 C           1.7464   26.0598    8.5571 C.3     1  UNL1       -0.0447
      3 H           1.5524   26.4118    7.5494 H       1  UNL1        0.0277
      4 H           1.5757   26.8780    9.2528 H       1  UNL1        0.0277
      5 H           1.0738   25.2347    8.7952 H       1  UNL1        0.0277
      6 C           3.3167   24.4856   10.1867 C.3     1  UNL1       -0.0447
      7 H           2.4680   23.8103   10.0798 H       1  UNL1        0.0277
      8 H           3.1419   25.1384   11.0397 H       1  UNL1        0.0277
      9 H           4.2109   23.8985   10.3709 H       1  UNL1        0.0277
     10 C           3.4209   24.1745    7.3955 C.3     1  UNL1       -0.0447
     11 H           2.5118   23.5835    7.5133 H       1  UNL1        0.0277
     12 H           4.2920   23.5320    7.4860 H       1  UNL1        0.0277
     13 H           3.4343   24.6407    6.4109 H       1  UNL1        0.0277
@<TRIPOS>BOND
     1    13    10    1
     2    10    12    1
     3    10    11    1
     4    10     1    1
     5     3     2    1
     6     2     1    1
     7     2     5    1
     8     2     4    1
     9     1     6    1
    10     7     6    1
    11     6     9    1
    12     6     8    1
