@<TRIPOS>MOLECULE
1
 13 12 0 0 0
SMALL
GASTEIGER

@<TRIPOS>ATOM
      1 P           6.5688   27.2341   10.0674 P.3     1  UNL1       -0.1154
      2 C           6.9356   28.9389   10.6720 C.3     1  UNL1       -0.0447
      3 H           7.4213   28.8978   11.6476 H       1  UNL1        0.0277
      4 H           6.0050   29.4968   10.7607 H       1  UNL1        0.0277
      5 H           7.5916   29.4473    9.9680 H       1  UNL1        0.0277
      6 C           5.9390   26.6024   11.6883 C.3     1  UNL1       -0.0447
      7 H           5.6601   25.5543   11.6172 H       1  UNL1        0.0277
      8 H           5.0615   27.1845   11.9627 H       1  UNL1        0.0277
      9 H           6.7009   26.7176   12.4596 H       1  UNL1        0.0277
     10 C           8.2861   26.5785   10.1766 C.3     1  UNL1       -0.0447
     11 H           8.8554   26.9020    9.3105 H       1  UNL1        0.0277
     12 H           8.2724   25.4947   10.1901 H       1  UNL1        0.0277
     13 H           8.7640   26.9472   11.0844 H       1  UNL1        0.0277
@<TRIPOS>BOND
     1    11    10    1
     2     5     2    1
     3     1    10    1
     4     1     2    1
     5     1     6    1
     6    10    12    1
     7    10    13    1
     8     2     4    1
     9     2     3    1
    10     7     6    1
    11     6     8    1
    12     6     9    1
