@<TRIPOS>MOLECULE
1
 71 72 0 0 0
SMALL
GASTEIGER

@<TRIPOS>ATOM
      1 P           6.8173    4.9090    3.9153 P.3     1  UNL1        0.0000
      2 P           6.7159    4.8540    6.1524 P.3     1  UNL1        0.0000
      3 SI          7.8947    3.3779    8.4889 Si      1  UNL1        0.0000
      4 SI          5.4656    1.8787    6.8675 Si      1  UNL1        0.0000
      5 SI          6.5655    7.9965    3.5169 Si      1  UNL1        0.0000
      6 SI          9.4226    6.4862    4.2751 Si      1  UNL1        0.0000
      7 N           5.1992    5.3723    4.1862 N.3     1  UNL1        0.0000
      8 C           6.9451    3.1242    6.8199 C.3     1  UNL1        0.0000
      9 H           7.6708    2.6828    6.1272 H       1  UNL1        0.0000
     10 C           8.1377    1.7668    9.4762 C.3     1  UNL1        0.0000
     11 H           8.6813    1.0240    8.9022 H       1  UNL1        0.0000
     12 H           7.1976    1.3263    9.7883 H       1  UNL1        0.0000
     13 H           8.7160    1.9698   10.3720 H       1  UNL1        0.0000
     14 C           9.6280    4.0791    8.1127 C.3     1  UNL1        0.0000
     15 H           9.5744    4.9957    7.5348 H       1  UNL1        0.0000
     16 H          10.2280    3.3696    7.5513 H       1  UNL1        0.0000
     17 H          10.1616    4.2991    9.0321 H       1  UNL1        0.0000
     18 C           6.9633    4.6390    9.5758 C.3     1  UNL1        0.0000
     19 H           7.4814    4.7848   10.5183 H       1  UNL1        0.0000
     20 H           5.9550    4.3114    9.8050 H       1  UNL1        0.0000
     21 H           6.8998    5.6077    9.0877 H       1  UNL1        0.0000
     22 C           4.3898    1.9836    5.3017 C.3     1  UNL1        0.0000
     23 H           4.9052    2.5312    4.5155 H       1  UNL1        0.0000
     24 H           3.4436    2.4824    5.4868 H       1  UNL1        0.0000
     25 H           4.1703    0.9941    4.9114 H       1  UNL1        0.0000
     26 C           4.3654    2.1432    8.4010 C.3     1  UNL1        0.0000
     27 H           3.8672    3.1067    8.3848 H       1  UNL1        0.0000
     28 H           4.9302    2.0722    9.3241 H       1  UNL1        0.0000
     29 H           3.5938    1.3800    8.4317 H       1  UNL1        0.0000
     30 C           6.2096    0.1236    6.9306 C.3     1  UNL1        0.0000
     31 H           5.4156   -0.6170    6.9069 H       1  UNL1        0.0000
     32 H           6.7882   -0.0504    7.8297 H       1  UNL1        0.0000
     33 H           6.8553   -0.0684    6.0803 H       1  UNL1        0.0000
     34 C           5.0346    5.0801    5.4414 C.3     1  UNL1        0.0000
     35 C           3.7699    5.2050    6.1278 C.ar    1  UNL1        0.0000
     36 C           2.5684    5.1204    5.4217 C.ar    1  UNL1        0.0000
     37 H           2.6020    4.9347    4.3591 H       1  UNL1        0.0000
     38 C           1.3670    5.2688    6.0855 C.ar    1  UNL1        0.0000
     39 H           0.4380    5.1972    5.5396 H       1  UNL1        0.0000
     40 C           1.3496    5.5123    7.4510 C.ar    1  UNL1        0.0000
     41 H           0.4077    5.6295    7.9661 H       1  UNL1        0.0000
     42 C           2.5396    5.6097    8.1555 C.ar    1  UNL1        0.0000
     43 H           2.5246    5.8073    9.2175 H       1  UNL1        0.0000
     44 C           3.7449    5.4503    7.4994 C.ar    1  UNL1        0.0000
     45 H           4.6831    5.5337    8.0313 H       1  UNL1        0.0000
     46 C           7.6976    6.4423    3.4289 C.3     1  UNL1        0.0000
     47 H           7.9090    6.2896    2.3651 H       1  UNL1        0.0000
     48 C           5.1561    7.8451    2.2435 C.3     1  UNL1        0.0000
     49 H           4.5984    6.9256    2.3909 H       1  UNL1        0.0000
     50 H           5.5389    7.8445    1.2269 H       1  UNL1        0.0000
     51 H           4.4618    8.6760    2.3303 H       1  UNL1        0.0000
     52 C           5.8705    8.2963    5.2716 C.3     1  UNL1        0.0000
     53 H           5.9676    9.3387    5.5579 H       1  UNL1        0.0000
     54 H           6.3830    7.6976    6.0189 H       1  UNL1        0.0000
     55 H           4.8174    8.0378    5.3164 H       1  UNL1        0.0000
     56 C           7.6247    9.5052    3.0214 C.3     1  UNL1        0.0000
     57 H           8.0854    9.3675    2.0494 H       1  UNL1        0.0000
     58 H           8.4130    9.7126    3.7361 H       1  UNL1        0.0000
     59 H           6.9979   10.3881    2.9607 H       1  UNL1        0.0000
     60 C          10.0465    4.7108    4.5976 C.3     1  UNL1        0.0000
     61 H          10.4156    4.2522    3.6863 H       1  UNL1        0.0000
     62 H           9.2540    4.0752    4.9877 H       1  UNL1        0.0000
     63 H          10.8618    4.6992    5.3145 H       1  UNL1        0.0000
     64 C           9.3705    7.4527    5.9208 C.3     1  UNL1        0.0000
     65 H          10.3559    7.4757    6.3757 H       1  UNL1        0.0000
     66 H           8.6862    7.0071    6.6368 H       1  UNL1        0.0000
     67 H           9.0574    8.4792    5.7649 H       1  UNL1        0.0000
     68 C          10.6531    7.3176    3.0813 C.3     1  UNL1        0.0000
     69 H          10.3678    8.3376    2.8516 H       1  UNL1        0.0000
     70 H          10.7229    6.7754    2.1435 H       1  UNL1        0.0000
     71 H          11.6460    7.3445    3.5172 H       1  UNL1        0.0000
@<TRIPOS>BOND
     1    50    48    1
     2    57    56    1
     3    70    68    1
     4    48    51    1
     5    48    49    1
     6    48     5    1
     7    47    46    1
     8    69    68    1
     9    59    56    1
    10    56     5    1
    11    56    58    1
    12    68    71    1
    13    68     6    1
    14    46     5    1
    15    46     1    1
    16    46     6    1
    17     5    52    1
    18    61    60    1
    19     1     7    1
    20     1     2    1
    21     7    34    1
    22     6    60    1
    23     6    64    1
    24    37    36    1
    25    23    22    1
    26    60    62    1
    27    60    63    1
    28    25    22    1
    29    52    55    1
    30    52    53    1
    31    52    54    1
    32    22    24    1
    33    22     4    1
    34    36    38   ar
    35    36    35   ar
    36    34    35    1
    37    34     2    1
    38    39    38    1
    39    67    64    1
    40    64    65    1
    41    64    66    1
    42    33    30    1
    43    38    40   ar
    44     9     8    1
    45    35    44   ar
    46     2     8    1
    47     8     4    1
    48     8     3    1
    49     4    30    1
    50     4    26    1
    51    31    30    1
    52    30    32    1
    53    40    41    1
    54    40    42   ar
    55    44    45    1
    56    44    42   ar
    57    15    14    1
    58    16    14    1
    59    14     3    1
    60    14    17    1
    61    42    43    1
    62    27    26    1
    63    26    29    1
    64    26    28    1
    65     3    10    1
    66     3    18    1
    67    11    10    1
    68    21    18    1
    69    10    12    1
    70    10    13    1
    71    18    20    1
    72    18    19    1
