@<TRIPOS>MOLECULE
1
 34 36 0 0 0
SMALL
GASTEIGER

@<TRIPOS>ATOM
      1 P           4.3972   13.7846    6.7961 P.3     1  UNL1       -0.0131
      2 C           3.2983   12.3503    7.1245 C.ar    1  UNL1       -0.0147
      3 C           2.2294   12.5812    7.9863 C.ar    1  UNL1       -0.0535
      4 C           1.3723   11.5532    8.3307 C.ar    1  UNL1       -0.0611
      5 C           1.5747   10.2805    7.8208 C.ar    1  UNL1       -0.0617
      6 C           2.6426   10.0409    6.9737 C.ar    1  UNL1       -0.0611
      7 C           3.5055   11.0671    6.6295 C.ar    1  UNL1       -0.0535
      8 C           5.4370   13.1424    5.4431 C.ar    1  UNL1       -0.0147
      9 C           4.7842   12.7394    4.2789 C.ar    1  UNL1       -0.0535
     10 C           5.5070   12.3736    3.1599 C.ar    1  UNL1       -0.0611
     11 C           6.8931   12.4302    3.1822 C.ar    1  UNL1       -0.0617
     12 C           7.5480   12.8561    4.3256 C.ar    1  UNL1       -0.0611
     13 C           6.8258   13.2158    5.4508 C.ar    1  UNL1       -0.0535
     14 C           5.4687   13.5191    8.2634 C.ar    1  UNL1       -0.0147
     15 C           6.1805   12.3387    8.4605 C.ar    1  UNL1       -0.0535
     16 C           6.9318   12.1680    9.6083 C.ar    1  UNL1       -0.0611
     17 C           6.9671   13.1626   10.5738 C.ar    1  UNL1       -0.0617
     18 C           6.2454   14.3301   10.3911 C.ar    1  UNL1       -0.0611
     19 C           5.4993   14.5069    9.2386 C.ar    1  UNL1       -0.0535
     20 H           2.0763   13.5783    8.3749 H       1  UNL1        0.0624
     21 H           0.5431   11.7445    8.9952 H       1  UNL1        0.0618
     22 H           0.9027    9.4771    8.0842 H       1  UNL1        0.0618
     23 H           2.8075    9.0488    6.5779 H       1  UNL1        0.0618
     24 H           4.3352   10.8628    5.9673 H       1  UNL1        0.0624
     25 H           3.7022   12.7203    4.2718 H       1  UNL1        0.0624
     26 H           4.9943   12.0490    2.2656 H       1  UNL1        0.0618
     27 H           7.4602   12.1487    2.3071 H       1  UNL1        0.0618
     28 H           8.6273   12.9108    4.3402 H       1  UNL1        0.0618
     29 H           7.3418   13.5497    6.3409 H       1  UNL1        0.0624
     30 H           6.1438   11.5574    7.7141 H       1  UNL1        0.0624
     31 H           7.4886   11.2537    9.7551 H       1  UNL1        0.0618
     32 H           7.5532   13.0220   11.4701 H       1  UNL1        0.0618
     33 H           6.2634   15.1025   11.1455 H       1  UNL1        0.0618
     34 H           4.9259   15.4087    9.0748 H       1  UNL1        0.0624
@<TRIPOS>BOND
     1    26    10    1
     2    27    11    1
     3    10    11   ar
     4    10     9   ar
     5    11    12   ar
     6    25     9    1
     7     9     8   ar
     8    12    28    1
     9    12    13   ar
    10     8    13   ar
    11     8     1    1
    12    13    29    1
    13    24     7    1
    14    23     6    1
    15     7     6   ar
    16     7     2   ar
    17     1     2    1
    18     1    14    1
    19     6     5   ar
    20     2     3   ar
    21    30    15    1
    22     5    22    1
    23     5     4   ar
    24     3     4   ar
    25     3    20    1
    26    14    15   ar
    27    14    19   ar
    28     4    21    1
    29    15    16   ar
    30    34    19    1
    31    19    18   ar
    32    16    31    1
    33    16    17   ar
    34    18    17   ar
    35    18    33    1
    36    17    32    1
