@<TRIPOS>MOLECULE
1
 18 18 0 0 0
SMALL
GASTEIGER

@<TRIPOS>ATOM
      1 P           8.9871    3.3471   13.6486 P.3     1  UNL1       -0.0098
      2 C           7.7321    4.6503   13.5364 C.2     1  UNL1       -0.0308
      3 C           7.1745    3.4380   13.5322 C.2     1  UNL1       -0.0058
      4 C           7.4546    6.0824   13.3326 C.3     1  UNL1       -0.0380
      5 H           7.9558    6.4284   12.4273 H       1  UNL1        0.0278
      6 H           7.8368    6.6731   14.1653 H       1  UNL1        0.0278
      7 H           6.3840    6.2561   13.2294 H       1  UNL1        0.0278
      8 C           5.9616    2.6968   13.3470 C.ar    1  UNL1       -0.0170
      9 C           6.0231    1.3922   12.8550 C.ar    1  UNL1       -0.0540
     10 H           6.9899    0.9658   12.6189 H       1  UNL1        0.0624
     11 C           4.8647    0.6700   12.6477 C.ar    1  UNL1       -0.0612
     12 H           4.9202   -0.3359   12.2590 H       1  UNL1        0.0618
     13 C           3.6334    1.2342   12.9427 C.ar    1  UNL1       -0.0617
     14 H           2.7283    0.6663   12.7880 H       1  UNL1        0.0618
     15 C           3.5635    2.5285   13.4337 C.ar    1  UNL1       -0.0612
     16 H           2.6031    2.9681   13.6603 H       1  UNL1        0.0618
     17 C           4.7175    3.2616   13.6322 C.ar    1  UNL1       -0.0540
     18 H           4.6669    4.2705   14.0146 H       1  UNL1        0.0624
@<TRIPOS>BOND
     1    12    11    1
     2     5     4    1
     3    10     9    1
     4    11     9   ar
     5    11    13   ar
     6    14    13    1
     7     9     8   ar
     8    13    15   ar
     9     7     4    1
    10     4     2    1
    11     4     6    1
    12     8     3    1
    13     8    17   ar
    14    15    17   ar
    15    15    16    1
    16     3     2    2
    17     2     1    1
    18    17    18    1
