@<TRIPOS>MOLECULE
1
 15 15 0 0 0
SMALL
GASTEIGER

@<TRIPOS>ATOM
      1 P           8.9924    2.2422    9.0353 P.3     1  UNL1       -0.0132
      2 C           8.1845    2.6381   10.6152 C.2     1  UNL1       -0.0090
      3 C           9.3233    3.3110   10.4528 C.2     1  UNL1       -0.0421
      4 H           9.9975    3.9594   10.9740 H       1  UNL1        0.0636
      5 C           7.1319    2.3229   11.5345 C.ar    1  UNL1       -0.0172
      6 C           6.4400    1.1181   11.4074 C.ar    1  UNL1       -0.0540
      7 H           6.7127    0.4361   10.6124 H       1  UNL1        0.0624
      8 C           5.4428    0.7900   12.3044 C.ar    1  UNL1       -0.0612
      9 H           4.9170   -0.1478   12.2054 H       1  UNL1        0.0618
     10 C           5.1157    1.6652   13.3283 C.ar    1  UNL1       -0.0617
     11 H           4.3308    1.4114   14.0249 H       1  UNL1        0.0618
     12 C           5.7985    2.8646   13.4619 C.ar    1  UNL1       -0.0612
     13 H           5.5454    3.5427   14.2636 H       1  UNL1        0.0618
     14 C           6.8055    3.1939   12.5761 C.ar    1  UNL1       -0.0540
     15 H           7.3437    4.1249   12.6759 H       1  UNL1        0.0624
@<TRIPOS>BOND
     1     1     3    1
     2     3     2    2
     3     3     4    1
     4     7     6    1
     5     2     5    1
     6     6     5   ar
     7     6     8   ar
     8     5    14   ar
     9     9     8    1
    10     8    10   ar
    11    14    15    1
    12    14    12   ar
    13    10    12   ar
    14    10    11    1
    15    12    13    1
