@<TRIPOS>MOLECULE
1
 13 12 0 0 0
SMALL
GASTEIGER

@<TRIPOS>ATOM
      1 P           1.6298    4.6393    2.8889 P.3     1  UNL1       -0.1154
      2 C           1.9507    5.9340    4.1555 C.3     1  UNL1       -0.0447
      3 C           2.7049    5.2798    1.5406 C.3     1  UNL1       -0.0447
      4 C          -0.0047    5.1758    2.2375 C.3     1  UNL1       -0.0447
      5 H           1.2444    5.8387    4.9787 H       1  UNL1        0.0277
      6 H           1.8575    6.9243    3.7111 H       1  UNL1        0.0277
      7 H           2.9625    5.8024    4.5385 H       1  UNL1        0.0277
      8 H           3.7512    5.1806    1.8286 H       1  UNL1        0.0277
      9 H           2.4725    6.3290    1.3592 H       1  UNL1        0.0277
     10 H           2.5342    4.7041    0.6312 H       1  UNL1        0.0277
     11 H          -0.7711    5.0590    3.0020 H       1  UNL1        0.0277
     12 H          -0.2593    4.5520    1.3809 H       1  UNL1        0.0277
     13 H           0.0399    6.2187    1.9257 H       1  UNL1        0.0277
@<TRIPOS>BOND
     1    10     3    1
     2     9     3    1
     3    12     4    1
     4     3     8    1
     5     3     1    1
     6    13     4    1
     7     4     1    1
     8     4    11    1
     9     1     2    1
    10     6     2    1
    11     2     7    1
    12     2     5    1
