@<TRIPOS>MOLECULE
1
 13 12 0 0 0
SMALL
GASTEIGER

@<TRIPOS>ATOM
      1 P           2.9147    0.0001    0.7437 P.3     1  UNL1       -0.1154
      2 C           1.7964   -1.4002    0.2980 C.3     1  UNL1       -0.0447
      3 C           3.9373    0.0001   -0.7994 C.3     1  UNL1       -0.0447
      4 H           2.3233   -2.3435    0.4283 H       1  UNL1        0.0277
      5 H           1.4684   -1.3092   -0.7368 H       1  UNL1        0.0277
      6 H           0.9291   -1.3971    0.9551 H       1  UNL1        0.0277
      7 H           3.2912    0.0007   -1.6763 H       1  UNL1        0.0277
      8 H           4.5717    0.8825   -0.8265 H       1  UNL1        0.0277
      9 C           1.7962    1.4004    0.2984 C.3     1  UNL1       -0.0447
     10 H           2.3229    2.3438    0.4297 H       1  UNL1        0.0277
     11 H           1.4688    1.3100   -0.7365 H       1  UNL1        0.0277
     12 H           0.9286    1.3966    0.9552 H       1  UNL1        0.0277
     13 H           4.5708   -0.8829   -0.8270 H       1  UNL1        0.0277
@<TRIPOS>BOND
     1     7     3    1
     2    13     3    1
     3     8     3    1
     4     3     1    1
     5     5     2    1
     6    11     9    1
     7     2     4    1
     8     2     1    1
     9     2     6    1
    10     9    10    1
    11     9     1    1
    12     9    12    1
