@<TRIPOS>MOLECULE
1
 50 50 0 0 0
SMALL
GASTEIGER

@<TRIPOS>ATOM
      1 P           4.7426   13.9016    4.2495 P.3     1  UNL1        0.0000
      2 SI          6.1275   15.6003    1.9205 Si      1  UNL1        0.0000
      3 SI          4.4868   16.8380    4.5696 Si      1  UNL1        0.0000
      4 O           4.9212   11.7672    2.4626 O.2     1  UNL1        0.0000
      5 C           5.1299   15.3638    3.5320 C.2     1  UNL1        0.0000
      6 C           5.5863   12.5483    3.3462 C.2     1  UNL1        0.0000
      7 C           6.8646   12.3357    3.7178 C.2     1  UNL1        0.0000
      8 C           3.5392   12.0092    2.3045 C.3     1  UNL1        0.0000
      9 C           3.0628   11.2804    1.0594 C.3     1  UNL1        0.0000
     10 C           7.7876   11.3019    3.2995 C.ar    1  UNL1        0.0000
     11 C           9.0441   11.2387    3.9105 C.ar    1  UNL1        0.0000
     12 C           9.9595   10.2698    3.5523 C.ar    1  UNL1        0.0000
     13 C           9.6434    9.3425    2.5723 C.ar    1  UNL1        0.0000
     14 C           8.4036    9.3952    1.9562 C.ar    1  UNL1        0.0000
     15 C           7.4832   10.3618    2.3119 C.ar    1  UNL1        0.0000
     16 C           6.4082   14.0877    0.7952 C.3     1  UNL1        0.0000
     17 C           5.1668   16.8662    0.8564 C.3     1  UNL1        0.0000
     18 C           7.8307   16.2706    2.4569 C.3     1  UNL1        0.0000
     19 C           2.5967   16.6270    4.7446 C.3     1  UNL1        0.0000
     20 C           5.4188   16.7797    6.2352 C.3     1  UNL1        0.0000
     21 C           4.8153   18.5501    3.8081 C.3     1  UNL1        0.0000
     22 H           7.2540   13.0445    4.4427 H       1  UNL1        0.0000
     23 H           2.9943   11.6416    3.1886 H       1  UNL1        0.0000
     24 H           3.3589   13.0937    2.2119 H       1  UNL1        0.0000
     25 H           1.9978   11.4420    0.9219 H       1  UNL1        0.0000
     26 H           3.2508   10.2151    1.1629 H       1  UNL1        0.0000
     27 H           3.5958   11.6433    0.1842 H       1  UNL1        0.0000
     28 H           9.2945   11.9581    4.6777 H       1  UNL1        0.0000
     29 H          10.9239   10.2351    4.0383 H       1  UNL1        0.0000
     30 H          10.3589    8.5840    2.2911 H       1  UNL1        0.0000
     31 H           8.1527    8.6750    1.1907 H       1  UNL1        0.0000
     32 H           6.5221   10.3963    1.8273 H       1  UNL1        0.0000
     33 H           7.1021   13.3741    1.2244 H       1  UNL1        0.0000
     34 H           6.8232   14.4161   -0.1542 H       1  UNL1        0.0000
     35 H           5.4859   13.5602    0.5775 H       1  UNL1        0.0000
     36 H           5.5171   17.8764    1.0313 H       1  UNL1        0.0000
     37 H           4.1024   16.8471    1.0663 H       1  UNL1        0.0000
     38 H           5.2952   16.6587   -0.2011 H       1  UNL1        0.0000
     39 H           8.4170   15.4991    2.9464 H       1  UNL1        0.0000
     40 H           7.7332   17.0992    3.1506 H       1  UNL1        0.0000
     41 H           8.3980   16.6201    1.6003 H       1  UNL1        0.0000
     42 H           2.0865   16.9286    3.8342 H       1  UNL1        0.0000
     43 H           2.1998   17.2309    5.5545 H       1  UNL1        0.0000
     44 H           2.3315   15.5899    4.9413 H       1  UNL1        0.0000
     45 H           5.5217   15.7584    6.5959 H       1  UNL1        0.0000
     46 H           4.9070   17.3532    7.0016 H       1  UNL1        0.0000
     47 H           6.4184   17.1927    6.1325 H       1  UNL1        0.0000
     48 H           4.1945   18.7361    2.9404 H       1  UNL1        0.0000
     49 H           5.8499   18.6723    3.5104 H       1  UNL1        0.0000
     50 H           4.5923   19.3211    4.5382 H       1  UNL1        0.0000
@<TRIPOS>BOND
     1    38    17    1
     2    34    16    1
     3    27     9    1
     4    35    16    1
     5    16    33    1
     6    16     2    1
     7    17    36    1
     8    17    37    1
     9    17     2    1
    10    25     9    1
    11     9    26    1
    12     9     8    1
    13    31    14    1
    14    41    18    1
    15    32    15    1
    16     2    18    1
    17     2     5    1
    18    14    15   ar
    19    14    13   ar
    20    24     8    1
    21    30    13    1
    22     8     4    1
    23     8    23    1
    24    15    10   ar
    25    18    39    1
    26    18    40    1
    27     4     6    1
    28    13    12   ar
    29    48    21    1
    30    10     7    1
    31    10    11   ar
    32     6     7    2
    33     6     1    1
    34    49    21    1
    35     5     1    2
    36     5     3    1
    37    12    11   ar
    38    12    29    1
    39     7    22    1
    40    21    50    1
    41    21     3    1
    42    42    19    1
    43    11    28    1
    44     3    19    1
    45     3    20    1
    46    19    44    1
    47    19    43    1
    48    47    20    1
    49    20    45    1
    50    20    46    1
