@<TRIPOS>MOLECULE
1
 25 24 0 0 0
SMALL
GASTEIGER

@<TRIPOS>ATOM
      1 P           3.9433    4.5505    3.5515 P.3     1  UNL1       -0.1038
      2 C           2.7532    5.2621    4.7556 C.3     1  UNL1       -0.0438
      3 H           1.7452    5.1768    4.3590 H       1  UNL1        0.0278
      4 H           2.9737    6.3079    4.9604 H       1  UNL1        0.0278
      5 H           2.7990    4.6862    5.6775 H       1  UNL1        0.0278
      6 C           5.5646    5.0298    4.3799 C.3     1  UNL1       -0.0261
      7 H           6.3336    4.8396    3.6245 H       1  UNL1        0.0343
      8 C           3.8061    5.8800    2.2334 C.3     1  UNL1       -0.0261
      9 H           3.6884    6.8374    2.7554 H       1  UNL1        0.0343
     10 C           5.6917    6.4808    4.8387 C.3     1  UNL1       -0.0587
     11 H           5.4678    7.1864    4.0431 H       1  UNL1        0.0236
     12 H           6.7149    6.6620    5.1670 H       1  UNL1        0.0236
     13 H           5.0366    6.6823    5.6822 H       1  UNL1        0.0236
     14 C           2.5531    5.6221    1.4076 C.3     1  UNL1       -0.0587
     15 H           2.6456    4.6792    0.8758 H       1  UNL1        0.0236
     16 H           2.4068    6.4194    0.6800 H       1  UNL1        0.0236
     17 H           1.6723    5.5674    2.0412 H       1  UNL1        0.0236
     18 C           5.8153    4.0891    5.5537 C.3     1  UNL1       -0.0587
     19 H           5.0963    4.2638    6.3507 H       1  UNL1        0.0236
     20 H           6.8145    4.2419    5.9594 H       1  UNL1        0.0236
     21 H           5.7215    3.0545    5.2359 H       1  UNL1        0.0236
     22 C           5.0233    5.9505    1.3208 C.3     1  UNL1       -0.0587
     23 H           5.9249    6.2208    1.8652 H       1  UNL1        0.0236
     24 H           4.8626    6.6996    0.5460 H       1  UNL1        0.0236
     25 H           5.1764    4.9920    0.8350 H       1  UNL1        0.0236
@<TRIPOS>BOND
     1    24    22    1
     2    16    14    1
     3    25    22    1
     4    15    14    1
     5    22    23    1
     6    22     8    1
     7    14    17    1
     8    14     8    1
     9     8     9    1
    10     8     1    1
    11     1     6    1
    12     1     2    1
    13     7     6    1
    14    11    10    1
    15     3     2    1
    16     6    10    1
    17     6    18    1
    18     2     4    1
    19     2     5    1
    20    10    12    1
    21    10    13    1
    22    21    18    1
    23    18    20    1
    24    18    19    1
