@<TRIPOS>MOLECULE
1
 25 24 0 0 0
SMALL
GASTEIGER

@<TRIPOS>ATOM
      1 P           0.8742    7.3401   16.4864 P.3     1  UNL1       -0.1038
      2 C          -0.8187    7.8680   16.9981 C.3     1  UNL1       -0.0438
      3 H          -1.5304    7.1164   16.6686 H       1  UNL1        0.0278
      4 H          -1.0759    8.8329   16.5646 H       1  UNL1        0.0278
      5 H          -0.8644    7.9445   18.0801 H       1  UNL1        0.0278
      6 C           0.7584    7.6905   14.6503 C.3     1  UNL1       -0.0261
      7 H           1.7351    7.3780   14.2623 H       1  UNL1        0.0343
      8 C          -0.2870    6.7499   14.0586 C.3     1  UNL1       -0.0587
      9 H          -0.0998    5.7466   14.4304 H       1  UNL1        0.0236
     10 H          -0.2177    6.7356   12.9722 H       1  UNL1        0.0236
     11 H          -1.2945    7.0535   14.3338 H       1  UNL1        0.0236
     12 C           0.4736    9.1300   14.2277 C.3     1  UNL1       -0.0587
     13 H          -0.5190    9.4425   14.5444 H       1  UNL1        0.0236
     14 H           0.5048    9.1938   13.1404 H       1  UNL1        0.0236
     15 H           1.2017    9.8307   14.6258 H       1  UNL1        0.0236
     16 C           1.7991    8.8414   17.1499 C.3     1  UNL1       -0.0261
     17 H           1.1591    9.7156   16.9887 H       1  UNL1        0.0343
     18 C           3.1568    9.0882   16.5031 C.3     1  UNL1       -0.0587
     19 H           3.8771    8.3550   16.8566 H       1  UNL1        0.0236
     20 H           3.5199   10.0794   16.7747 H       1  UNL1        0.0236
     21 H           3.1111    9.0251   15.4200 H       1  UNL1        0.0236
     22 C           1.9990    8.6222   18.6443 C.3     1  UNL1       -0.0587
     23 H           1.0573    8.6834   19.1831 H       1  UNL1        0.0236
     24 H           2.6728    9.3701   19.0597 H       1  UNL1        0.0236
     25 H           2.4335    7.6332   18.7958 H       1  UNL1        0.0236
@<TRIPOS>BOND
     1    10     8    1
     2    14    12    1
     3     8    11    1
     4     8     9    1
     5     8     6    1
     6    12    13    1
     7    12    15    1
     8    12     6    1
     9     7     6    1
    10     6     1    1
    11    21    18    1
    12     1     2    1
    13     1    16    1
    14    18    20    1
    15    18    19    1
    16    18    16    1
    17     4     2    1
    18     3     2    1
    19    17    16    1
    20     2     5    1
    21    16    22    1
    22    22    25    1
    23    22    24    1
    24    22    23    1
