@<TRIPOS>MOLECULE
1
 25 24 0 0 0
SMALL
GASTEIGER

@<TRIPOS>ATOM
      1 P           6.0324   19.2460    6.0773 P.3     1  UNL1       -0.1038
      2 C           7.6117   20.0981    6.6735 C.3     1  UNL1       -0.0261
      3 H           8.0910   19.3026    7.2587 H       1  UNL1        0.0343
      4 C           8.5692   20.4706    5.5443 C.3     1  UNL1       -0.0587
      5 H           8.6981   19.6428    4.8526 H       1  UNL1        0.0236
      6 H           9.5457   20.7188    5.9599 H       1  UNL1        0.0236
      7 H           8.2167   21.3328    4.9845 H       1  UNL1        0.0236
      8 C           7.4048   21.2882    7.6051 C.3     1  UNL1       -0.0587
      9 H           6.9192   22.1185    7.0981 H       1  UNL1        0.0236
     10 H           8.3740   21.6366    7.9613 H       1  UNL1        0.0236
     11 H           6.8107   21.0074    8.4700 H       1  UNL1        0.0236
     12 C           4.6995   20.1122    6.9942 C.3     1  UNL1       -0.0438
     13 H           3.7527   19.7221    6.6229 H       1  UNL1        0.0278
     14 H           4.7384   21.1883    6.8465 H       1  UNL1        0.0278
     15 H           4.7668   19.8821    8.0517 H       1  UNL1        0.0278
     16 C           5.7239   19.9725    4.3697 C.3     1  UNL1       -0.0261
     17 H           6.6369   19.7711    3.8003 H       1  UNL1        0.0343
     18 C           5.4355   21.4712    4.3132 C.3     1  UNL1       -0.0587
     19 H           4.4294   21.6847    4.6653 H       1  UNL1        0.0236
     20 H           5.5037   21.8131    3.2807 H       1  UNL1        0.0236
     21 H           6.1409   22.0483    4.9054 H       1  UNL1        0.0236
     22 C           4.5805   19.1939    3.7273 C.3     1  UNL1       -0.0587
     23 H           4.7646   18.1255    3.7988 H       1  UNL1        0.0236
     24 H           4.4730   19.4650    2.6779 H       1  UNL1        0.0236
     25 H           3.6387   19.4031    4.2296 H       1  UNL1        0.0236
@<TRIPOS>BOND
     1    24    22    1
     2    20    18    1
     3    22    23    1
     4    22    25    1
     5    22    16    1
     6    17    16    1
     7    18    16    1
     8    18    19    1
     9    18    21    1
    10    16     1    1
    11     5     4    1
    12     7     4    1
    13     4     6    1
    14     4     2    1
    15     1     2    1
    16     1    12    1
    17    13    12    1
    18     2     3    1
    19     2     8    1
    20    14    12    1
    21    12    15    1
    22     9     8    1
    23     8    10    1
    24     8    11    1
