@<TRIPOS>MOLECULE
1
 13 12 0 0 0
SMALL
GASTEIGER

@<TRIPOS>ATOM
      1 P           7.9301    1.9510   21.1266 P.3     1  UNL1       -0.1154
      2 C           8.9977    0.6085   20.4571 C.3     1  UNL1       -0.0447
      3 C           6.3852    0.9868   21.3724 C.3     1  UNL1       -0.0447
      4 C           7.4246    2.7475   19.5491 C.3     1  UNL1       -0.0447
      5 H           8.5613    0.2021   19.5453 H       1  UNL1        0.0277
      6 H           9.9934    0.9912   20.2486 H       1  UNL1        0.0277
      7 H           9.0904   -0.1809   21.1984 H       1  UNL1        0.0277
      8 H           5.5717    1.6799   21.5787 H       1  UNL1        0.0277
      9 H           6.1625    0.4282   20.4630 H       1  UNL1        0.0277
     10 H           6.4930    0.2898   22.1995 H       1  UNL1        0.0277
     11 H           6.6662    3.4958   19.7757 H       1  UNL1        0.0277
     12 H           8.2723    3.2410   19.0792 H       1  UNL1        0.0277
     13 H           7.0164    1.9998   18.8685 H       1  UNL1        0.0277
@<TRIPOS>BOND
     1    13     4    1
     2    12     4    1
     3     5     2    1
     4     4    11    1
     5     4     1    1
     6     6     2    1
     7     2     1    1
     8     2     7    1
     9     9     3    1
    10     1     3    1
    11     3     8    1
    12     3    10    1
