@<TRIPOS>MOLECULE
1
 13 12 0 0 0
SMALL
GASTEIGER

@<TRIPOS>ATOM
      1 P           7.4060    3.1568   24.5403 P.3     1  UNL1       -0.1154
      2 C           8.0250    2.3292   26.0609 C.3     1  UNL1       -0.0447
      3 C           6.9532    4.7624   25.2999 C.3     1  UNL1       -0.0447
      4 C           5.7288    2.4240   24.4014 C.3     1  UNL1       -0.0447
      5 H           7.2600    2.3741   26.8356 H       1  UNL1        0.0277
      6 H           8.2932    1.2934   25.8747 H       1  UNL1        0.0277
      7 H           8.9164    2.8539   26.3996 H       1  UNL1        0.0277
      8 H           7.8585    5.2523   25.6560 H       1  UNL1        0.0277
      9 H           6.4795    5.3931   24.5503 H       1  UNL1        0.0277
     10 H           6.2706    4.6001   26.1346 H       1  UNL1        0.0277
     11 H           5.1963    2.9419   23.6054 H       1  UNL1        0.0277
     12 H           5.7850    1.3619   24.1751 H       1  UNL1        0.0277
     13 H           5.1996    2.5646   25.3438 H       1  UNL1        0.0277
@<TRIPOS>BOND
     1    11     4    1
     2    12     4    1
     3     4     1    1
     4     4    13    1
     5     1     3    1
     6     1     2    1
     7     9     3    1
     8     3     8    1
     9     3    10    1
    10     6     2    1
    11     2     7    1
    12     2     5    1
