@<TRIPOS>MOLECULE
1
 13 12 0 0 0
SMALL
GASTEIGER

@<TRIPOS>ATOM
      1 P           3.4838    6.4332    6.9942 P.3     1  UNL1       -0.1154
      2 C           3.7589    8.2492    7.0311 C.3     1  UNL1       -0.0447
      3 C           1.6581    6.3758    6.9345 C.3     1  UNL1       -0.0447
      4 C           3.8414    6.0858    5.2283 C.3     1  UNL1       -0.0447
      5 H           3.4332    8.6464    7.9899 H       1  UNL1        0.0277
      6 H           4.8154    8.4700    6.8950 H       1  UNL1        0.0277
      7 H           3.1877    8.7215    6.2328 H       1  UNL1        0.0277
      8 H           1.2497    6.7761    7.8602 H       1  UNL1        0.0277
      9 H           1.2928    6.9596    6.0896 H       1  UNL1        0.0277
     10 H           1.3508    5.3364    6.8255 H       1  UNL1        0.0277
     11 H           3.2664    6.7736    4.6082 H       1  UNL1        0.0277
     12 H           4.9008    6.2020    5.0102 H       1  UNL1        0.0277
     13 H           3.5457    5.0599    5.0137 H       1  UNL1        0.0277
@<TRIPOS>BOND
     1    11     4    1
     2    12     4    1
     3    13     4    1
     4     4     1    1
     5     9     3    1
     6     7     2    1
     7    10     3    1
     8     6     2    1
     9     3     1    1
    10     3     8    1
    11     1     2    1
    12     2     5    1
