@<TRIPOS>MOLECULE
1
 13 12 0 0 0
SMALL
GASTEIGER

@<TRIPOS>ATOM
      1 P           4.7166    3.1489    9.8735 P.3     1  UNL1       -0.1154
      2 C           3.1418    2.4168   10.4422 C.3     1  UNL1       -0.0447
      3 C           5.6412    3.2009   11.4601 C.3     1  UNL1       -0.0447
      4 C           5.4757    1.6645    9.1075 C.3     1  UNL1       -0.0447
      5 H           2.6152    3.1375   11.0664 H       1  UNL1        0.0277
      6 H           2.5333    2.1937    9.5664 H       1  UNL1        0.0277
      7 H           3.3295    1.5029   11.0065 H       1  UNL1        0.0277
      8 H           5.7209    2.1947   11.8697 H       1  UNL1        0.0277
      9 H           6.6361    3.6124   11.3075 H       1  UNL1        0.0277
     10 H           5.1056    3.8354   12.1614 H       1  UNL1        0.0277
     11 H           4.9313    1.4313    8.1937 H       1  UNL1        0.0277
     12 H           6.5227    1.8389    8.8681 H       1  UNL1        0.0277
     13 H           5.3983    0.8298    9.8046 H       1  UNL1        0.0277
@<TRIPOS>BOND
     1    11     4    1
     2    12     4    1
     3     4    13    1
     4     4     1    1
     5     6     2    1
     6     1     2    1
     7     1     3    1
     8     2     7    1
     9     2     5    1
    10     9     3    1
    11     3     8    1
    12     3    10    1
