@<TRIPOS>MOLECULE
1
 13 12 0 0 0
SMALL
GASTEIGER

@<TRIPOS>ATOM
      1 P          10.1329    4.5236   21.2098 P.3     1  UNL1       -0.1154
      2 C          11.0747    3.6648   19.8821 C.3     1  UNL1       -0.0447
      3 C           9.3527    5.8917   20.2779 C.3     1  UNL1       -0.0447
      4 C          11.5317    5.4359   21.9669 C.3     1  UNL1       -0.0447
      5 H          11.7445    2.9425   20.3448 H       1  UNL1        0.0277
      6 H          10.4116    3.1426   19.1973 H       1  UNL1        0.0277
      7 H          11.6602    4.3963   19.3260 H       1  UNL1        0.0277
      8 H           8.9333    6.5894   21.0026 H       1  UNL1        0.0277
      9 H          10.0922    6.3944   19.6536 H       1  UNL1        0.0277
     10 H           8.5337    5.5180   19.6672 H       1  UNL1        0.0277
     11 H          12.1687    4.7373   22.5055 H       1  UNL1        0.0277
     12 H          12.1111    5.9449   21.1962 H       1  UNL1        0.0277
     13 H          11.1377    6.1704   22.6675 H       1  UNL1        0.0277
@<TRIPOS>BOND
     1     6     2    1
     2     7     2    1
     3     9     3    1
     4    10     3    1
     5     2     5    1
     6     2     1    1
     7     3     8    1
     8     3     1    1
     9    12     4    1
    10     1     4    1
    11     4    11    1
    12     4    13    1
