@<TRIPOS>MOLECULE
1
 13 12 0 0 0
SMALL
GASTEIGER

@<TRIPOS>ATOM
      1 P           6.5337    4.9870    7.6421 P.3     1  UNL1       -0.1154
      2 C           7.9600    4.5596    8.7209 C.3     1  UNL1       -0.0447
      3 C           7.2627    6.4950    6.8840 C.3     1  UNL1       -0.0447
      4 C           6.7983    3.8006    6.2709 C.3     1  UNL1       -0.0447
      5 H           7.8202    3.5792    9.1706 H       1  UNL1        0.0277
      6 H           8.8793    4.5584    8.1360 H       1  UNL1        0.0277
      7 H           8.0388    5.3018    9.5138 H       1  UNL1        0.0277
      8 H           7.4226    7.2397    7.6609 H       1  UNL1        0.0277
      9 H           8.2184    6.2476    6.4223 H       1  UNL1        0.0277
     10 H           6.5984    6.9106    6.1298 H       1  UNL1        0.0277
     11 H           6.1353    4.0550    5.4459 H       1  UNL1        0.0277
     12 H           7.8366    3.8306    5.9403 H       1  UNL1        0.0277
     13 H           6.5381    2.7973    6.6010 H       1  UNL1        0.0277
@<TRIPOS>BOND
     1    11     4    1
     2    12     4    1
     3    10     3    1
     4     4    13    1
     5     4     1    1
     6     9     3    1
     7     3     1    1
     8     3     8    1
     9     1     2    1
    10     6     2    1
    11     2     5    1
    12     2     7    1
