@<TRIPOS>MOLECULE
1
 34 36 0 0 0
SMALL
GASTEIGER

@<TRIPOS>ATOM
      1 P          -1.8998    1.8199    5.5747 P.3     1  UNL1       -0.0131
      2 C          -3.2054    0.5804    5.2853 C.ar    1  UNL1       -0.0147
      3 C          -3.6970    0.4044    3.9978 C.ar    1  UNL1       -0.0535
      4 C          -4.6987   -0.5182    3.7534 C.ar    1  UNL1       -0.0611
      5 C          -5.2181   -1.2656    4.7969 C.ar    1  UNL1       -0.0617
      6 C          -4.7451   -1.0792    6.0868 C.ar    1  UNL1       -0.0611
      7 C          -3.7456   -0.1570    6.3351 C.ar    1  UNL1       -0.0535
      8 C          -2.7053    2.9111    6.7976 C.ar    1  UNL1       -0.0147
      9 C          -3.3545    4.0492    6.3297 C.ar    1  UNL1       -0.0535
     10 C          -3.9998    4.8920    7.2154 C.ar    1  UNL1       -0.0611
     11 C          -4.0013    4.6060    8.5712 C.ar    1  UNL1       -0.0617
     12 C          -3.3547    3.4750    9.0402 C.ar    1  UNL1       -0.0611
     13 C          -2.7085    2.6265    8.1590 C.ar    1  UNL1       -0.0535
     14 C          -0.6482    0.9883    6.5915 C.ar    1  UNL1       -0.0147
     15 C          -0.5495   -0.3911    6.7279 C.ar    1  UNL1       -0.0535
     16 C           0.4708   -0.9342    7.4920 C.ar    1  UNL1       -0.0611
     17 C           1.3919   -0.1089    8.1153 C.ar    1  UNL1       -0.0617
     18 C           1.3000    1.2682    7.9725 C.ar    1  UNL1       -0.0611
     19 C           0.2887    1.8171    7.2085 C.ar    1  UNL1       -0.0535
     20 H          -3.2956    1.0062    3.1930 H       1  UNL1        0.0624
     21 H          -5.0772   -0.6518    2.7507 H       1  UNL1        0.0618
     22 H          -5.9978   -1.9885    4.6084 H       1  UNL1        0.0618
     23 H          -5.1600   -1.6536    6.9020 H       1  UNL1        0.0618
     24 H          -3.3860   -0.0039    7.3425 H       1  UNL1        0.0624
     25 H          -3.3239    4.2752    5.2723 H       1  UNL1        0.0624
     26 H          -4.4952    5.7776    6.8482 H       1  UNL1        0.0618
     27 H          -4.4988    5.2680    9.2641 H       1  UNL1        0.0618
     28 H          -3.3474    3.2545   10.0976 H       1  UNL1        0.0618
     29 H          -2.1911    1.7560    8.5380 H       1  UNL1        0.0624
     30 H          -1.2670   -1.0392    6.2440 H       1  UNL1        0.0624
     31 H           0.5469   -2.0069    7.5974 H       1  UNL1        0.0618
     32 H           2.1850   -0.5393    8.7084 H       1  UNL1        0.0618
     33 H           2.0219    1.9113    8.4533 H       1  UNL1        0.0618
     34 H           0.2083    2.8879    7.0705 H       1  UNL1        0.0624
@<TRIPOS>BOND
     1    21     4    1
     2    20     3    1
     3     4     3   ar
     4     4     5   ar
     5     3     2   ar
     6    22     5    1
     7     5     6   ar
     8    25     9    1
     9     2     1    1
    10     2     7   ar
    11     1    14    1
    12     1     8    1
    13     6     7   ar
    14     6    23    1
    15    30    15    1
    16     9     8   ar
    17     9    10   ar
    18     7    24    1
    19    14    15   ar
    20    14    19   ar
    21    15    16   ar
    22     8    13   ar
    23    26    10    1
    24    34    19    1
    25    19    18   ar
    26    10    11   ar
    27    16    31    1
    28    16    17   ar
    29    18    17   ar
    30    18    33    1
    31    17    32    1
    32    13    29    1
    33    13    12   ar
    34    11    12   ar
    35    11    27    1
    36    12    28    1
