@<TRIPOS>MOLECULE
1
 13 12 0 0 0
SMALL
GASTEIGER

@<TRIPOS>ATOM
      1 P           5.0914    7.1410    3.1036 P.3     1  UNL1       -0.1154
      2 C           4.0047    6.6400    1.7272 C.3     1  UNL1       -0.0447
      3 H           3.3652    5.8292    2.0748 H       1  UNL1        0.0277
      4 H           4.6148    6.2769    0.9016 H       1  UNL1        0.0277
      5 H           3.3933    7.4804    1.3983 H       1  UNL1        0.0277
      6 C           3.8523    7.7031    4.3208 C.3     1  UNL1       -0.0447
      7 H           3.1301    8.3603    3.8371 H       1  UNL1        0.0277
      8 H           4.3418    8.2380    5.1312 H       1  UNL1        0.0277
      9 H           3.3409    6.8249    4.7151 H       1  UNL1        0.0277
     10 C           5.7776    8.7227    2.4741 C.3     1  UNL1       -0.0447
     11 H           4.9745    9.4111    2.2138 H       1  UNL1        0.0277
     12 H           6.3876    8.5178    1.5949 H       1  UNL1        0.0277
     13 H           6.4197    9.1726    3.2291 H       1  UNL1        0.0277
@<TRIPOS>BOND
     1     4     2    1
     2     5     2    1
     3    12    10    1
     4     2     3    1
     5     2     1    1
     6    11    10    1
     7    10     1    1
     8    10    13    1
     9     1     6    1
    10     7     6    1
    11     6     9    1
    12     6     8    1
