@<TRIPOS>MOLECULE
1
 13 12 0 0 0
SMALL
GASTEIGER

@<TRIPOS>ATOM
      1 P           1.3609    3.0208    7.5867 P.3     1  UNL1       -0.1154
      2 C           1.3418    1.1890    7.4977 C.3     1  UNL1       -0.0447
      3 H           0.7344    0.8526    6.6569 H       1  UNL1        0.0277
      4 H           0.9474    0.7982    8.4320 H       1  UNL1        0.0277
      5 H           2.3640    0.8306    7.3874 H       1  UNL1        0.0277
      6 C          -0.4451    3.3827    7.5210 C.3     1  UNL1       -0.0447
      7 H          -0.9594    2.6588    6.8894 H       1  UNL1        0.0277
      8 H          -0.5909    4.3803    7.1101 H       1  UNL1        0.0277
      9 H          -0.8665    3.3510    8.5232 H       1  UNL1        0.0277
     10 C           1.7404    3.3468    5.8022 C.3     1  UNL1       -0.0447
     11 H           0.9868    2.8837    5.1660 H       1  UNL1        0.0277
     12 H           2.7165    2.9256    5.5643 H       1  UNL1        0.0277
     13 H           1.7614    4.4169    5.6106 H       1  UNL1        0.0277
@<TRIPOS>BOND
     1    11    10    1
     2    12    10    1
     3    13    10    1
     4    10     1    1
     5     3     2    1
     6     7     6    1
     7     8     6    1
     8     5     2    1
     9     2     1    1
    10     2     4    1
    11     6     1    1
    12     6     9    1
