@<TRIPOS>MOLECULE
1
 13 12 0 0 0
SMALL
GASTEIGER

@<TRIPOS>ATOM
      1 P           4.7483    3.3847    8.5372 P.3     1  UNL1       -0.1154
      2 C           5.3900    4.2075    7.0127 C.3     1  UNL1       -0.0447
      3 H           6.3626    3.7973    6.7429 H       1  UNL1        0.0277
      4 H           5.4883    5.2734    7.1984 H       1  UNL1        0.0277
      5 H           4.6935    4.0569    6.1903 H       1  UNL1        0.0277
      6 C           6.1384    3.7982    9.6684 C.3     1  UNL1       -0.0447
      7 H           7.0996    3.6997    9.1647 H       1  UNL1        0.0277
      8 H           6.1113    3.1330   10.5281 H       1  UNL1        0.0277
      9 H           6.0133    4.8223   10.0168 H       1  UNL1        0.0277
     10 C           5.1926    1.6494    8.1080 C.3     1  UNL1       -0.0447
     11 H           6.2727    1.5375    8.0139 H       1  UNL1        0.0277
     12 H           4.7157    1.3806    7.1655 H       1  UNL1        0.0277
     13 H           4.8176    0.9969    8.8938 H       1  UNL1        0.0277
@<TRIPOS>BOND
     1     5     2    1
     2     3     2    1
     3     2     4    1
     4     2     1    1
     5    12    10    1
     6    11    10    1
     7    10     1    1
     8    10    13    1
     9     1     6    1
    10     7     6    1
    11     6     9    1
    12     6     8    1
