@<TRIPOS>MOLECULE
1
 34 36 0 0 0
SMALL
GASTEIGER

@<TRIPOS>ATOM
      1 P           7.3730    7.3506   17.2965 P.3     1  UNL1       -0.0131
      2 C           6.0799    6.1069   17.6286 C.ar    1  UNL1       -0.0147
      3 C           4.7769    6.3565   17.2178 C.ar    1  UNL1       -0.0535
      4 H           4.5595    7.2716   16.6813 H       1  UNL1        0.0624
      5 C           3.7753    5.4379   17.4784 C.ar    1  UNL1       -0.0611
      6 H           2.7639    5.6372   17.1574 H       1  UNL1        0.0618
      7 C           4.0739    4.2635   18.1482 C.ar    1  UNL1       -0.0617
      8 H           3.2945    3.5441   18.3512 H       1  UNL1        0.0618
      9 C           5.3746    4.0061   18.5556 C.ar    1  UNL1       -0.0611
     10 H           5.6062    3.0879   19.0753 H       1  UNL1        0.0618
     11 C           6.3773    4.9217   18.2985 C.ar    1  UNL1       -0.0535
     12 H           7.3940    4.7247   18.6112 H       1  UNL1        0.0624
     13 C           7.8486    7.9091   18.9666 C.ar    1  UNL1       -0.0147
     14 C           7.2377    7.4672   20.1339 C.ar    1  UNL1       -0.0535
     15 H           6.4417    6.7377   20.0904 H       1  UNL1        0.0624
     16 C           7.6452    7.9680   21.3591 C.ar    1  UNL1       -0.0611
     17 H           7.1651    7.6217   22.2628 H       1  UNL1        0.0618
     18 C           8.6604    8.9064   21.4299 C.ar    1  UNL1       -0.0617
     19 H           8.9767    9.2891   22.3889 H       1  UNL1        0.0618
     20 C           9.2622    9.3625   20.2672 C.ar    1  UNL1       -0.0611
     21 H          10.0485   10.1012   20.3147 H       1  UNL1        0.0618
     22 C           8.8508    8.8770   19.0406 C.ar    1  UNL1       -0.0535
     23 H           9.2983    9.2513   18.1277 H       1  UNL1        0.0624
     24 C           8.7621    6.2565   16.8224 C.ar    1  UNL1       -0.0147
     25 C          10.0600    6.4420   17.2856 C.ar    1  UNL1       -0.0535
     26 H          10.2723    7.1926   18.0306 H       1  UNL1        0.0624
     27 C          11.0928    5.6616   16.7951 C.ar    1  UNL1       -0.0611
     28 H          12.0968    5.8239   17.1571 H       1  UNL1        0.0618
     29 C          10.8453    4.6909   15.8403 C.ar    1  UNL1       -0.0617
     30 H          11.6557    4.0951   15.4486 H       1  UNL1        0.0618
     31 C           9.5503    4.4796   15.3954 C.ar    1  UNL1       -0.0611
     32 H           9.3461    3.7118   14.6639 H       1  UNL1        0.0618
     33 C           8.5159    5.2542   15.8834 C.ar    1  UNL1       -0.0535
     34 H           7.5031    5.0633   15.5523 H       1  UNL1        0.0624
@<TRIPOS>BOND
     1    32    31    1
     2    31    29   ar
     3    31    33   ar
     4    30    29    1
     5    34    33    1
     6    29    27   ar
     7    33    24   ar
     8     4     3    1
     9    27    28    1
    10    27    25   ar
    11    24    25   ar
    12    24     1    1
    13     6     5    1
    14     3     5   ar
    15     3     2   ar
    16    25    26    1
    17     1     2    1
    18     1    13    1
    19     5     7   ar
    20     2    11   ar
    21    23    22    1
    22     7     8    1
    23     7     9   ar
    24    11     9   ar
    25    11    12    1
    26     9    10    1
    27    13    22   ar
    28    13    14   ar
    29    22    20   ar
    30    15    14    1
    31    14    16   ar
    32    20    21    1
    33    20    18   ar
    34    16    18   ar
    35    16    17    1
    36    18    19    1
