@<TRIPOS>MOLECULE
1
 17 17 0 0 0
SMALL
GASTEIGER

@<TRIPOS>ATOM
      1 P          -1.0805    3.9132   15.5205 P.3     1  UNL1        0.0983
      2 N          -0.8656    3.6335   17.1278 N.3     1  UNL1       -0.2656
      3 N          -2.1494    5.1273   15.8074 N.3     1  UNL1       -0.2656
      4 C          -0.0118    2.6223   17.6982 C.3     1  UNL1       -0.0074
      5 C          -1.5210    4.5603   18.0391 C.3     1  UNL1        0.0170
      6 C          -2.5452    5.3209   17.1965 C.3     1  UNL1        0.0170
      7 C          -2.8686    5.8791   14.8092 C.3     1  UNL1       -0.0074
      8 H          -0.5712    2.0164   18.4144 H       1  UNL1        0.0394
      9 H           0.3539    1.9784   16.9017 H       1  UNL1        0.0394
     10 H           0.8381    3.0706   18.2183 H       1  UNL1        0.0394
     11 H          -2.7534    6.9494   14.9907 H       1  UNL1        0.0394
     12 H          -2.4690    5.6425   13.8272 H       1  UNL1        0.0394
     13 H          -3.9339    5.6377   14.8297 H       1  UNL1        0.0394
     14 H          -1.9979    4.0062   18.8514 H       1  UNL1        0.0443
     15 H          -0.7784    5.2363   18.4779 H       1  UNL1        0.0443
     16 H          -2.5494    6.3876   17.4327 H       1  UNL1        0.0443
     17 H          -3.5598    4.9351   17.3495 H       1  UNL1        0.0443
@<TRIPOS>BOND
     1    12     7    1
     2     7    13    1
     3     7    11    1
     4     7     3    1
     5     1     3    1
     6     1     2    1
     7     3     6    1
     8     9     4    1
     9     2     4    1
    10     2     5    1
    11     6    17    1
    12     6    16    1
    13     6     5    1
    14     4    10    1
    15     4     8    1
    16     5    15    1
    17     5    14    1
