@<TRIPOS>MOLECULE
1
 34 36 0 0 0
SMALL
GASTEIGER

@<TRIPOS>ATOM
      1 P           3.0030    2.8643    1.5084 P.3     1  UNL1       -0.0131
      2 C           2.9461    3.5463   -0.1826 C.ar    1  UNL1       -0.0147
      3 C           1.8531    3.1930   -0.9688 C.ar    1  UNL1       -0.0535
      4 C           1.7336    3.6913   -2.2525 C.ar    1  UNL1       -0.0611
      5 C           2.7043    4.5399   -2.7610 C.ar    1  UNL1       -0.0617
      6 C           3.7947    4.8904   -1.9827 C.ar    1  UNL1       -0.0611
      7 C           3.9186    4.3975   -0.6955 C.ar    1  UNL1       -0.0535
      8 C           2.0488    4.1093    2.4298 C.ar    1  UNL1       -0.0147
      9 C           2.2622    5.4653    2.1899 C.ar    1  UNL1       -0.0535
     10 C           1.5341    6.4107    2.8863 C.ar    1  UNL1       -0.0611
     11 C           0.5881    6.0117    3.8186 C.ar    1  UNL1       -0.0617
     12 C           0.3696    4.6649    4.0530 C.ar    1  UNL1       -0.0611
     13 C           1.0959    3.7123    3.3597 C.ar    1  UNL1       -0.0535
     14 C           4.7343    3.1554    1.9939 C.ar    1  UNL1       -0.0147
     15 C           5.7030    2.4410    1.2889 C.ar    1  UNL1       -0.0535
     16 C           7.0310    2.5194    1.6593 C.ar    1  UNL1       -0.0611
     17 C           7.3990    3.2949    2.7481 C.ar    1  UNL1       -0.0617
     18 C           6.4383    3.9945    3.4588 C.ar    1  UNL1       -0.0611
     19 C           5.1064    3.9271    3.0869 C.ar    1  UNL1       -0.0535
     20 H           1.1062    2.5245   -0.5644 H       1  UNL1        0.0624
     21 H           0.8848    3.4140   -2.8590 H       1  UNL1        0.0618
     22 H           2.6141    4.9258   -3.7655 H       1  UNL1        0.0618
     23 H           4.5537    5.5497   -2.3785 H       1  UNL1        0.0618
     24 H           4.7770    4.6691   -0.0953 H       1  UNL1        0.0624
     25 H           2.9958    5.7739    1.4572 H       1  UNL1        0.0624
     26 H           1.7018    7.4617    2.7004 H       1  UNL1        0.0618
     27 H           0.0198    6.7544    4.3589 H       1  UNL1        0.0618
     28 H          -0.3704    4.3522    4.7741 H       1  UNL1        0.0618
     29 H           0.9255    2.6615    3.5425 H       1  UNL1        0.0624
     30 H           5.4032    1.8294    0.4433 H       1  UNL1        0.0624
     31 H           7.7785    1.9696    1.1069 H       1  UNL1        0.0618
     32 H           8.4358    3.3473    3.0461 H       1  UNL1        0.0618
     33 H           6.7250    4.5905    4.3129 H       1  UNL1        0.0618
     34 H           4.3543    4.4593    3.6524 H       1  UNL1        0.0624
@<TRIPOS>BOND
     1    22     5    1
     2    21     4    1
     3     5     4   ar
     4     5     6   ar
     5    23     6    1
     6     4     3   ar
     7     6     7   ar
     8     3    20    1
     9     3     2   ar
    10     7     2   ar
    11     7    24    1
    12     2     1    1
    13    30    15    1
    14    31    16    1
    15    15    16   ar
    16    15    14   ar
    17    25     9    1
    18     1    14    1
    19     1     8    1
    20    16    17   ar
    21    14    19   ar
    22     9     8   ar
    23     9    10   ar
    24     8    13   ar
    25    26    10    1
    26    17    32    1
    27    17    18   ar
    28    10    11   ar
    29    19    18   ar
    30    19    34    1
    31    13    29    1
    32    13    12   ar
    33    18    33    1
    34    11    12   ar
    35    11    27    1
    36    12    28    1
