@<TRIPOS>MOLECULE
1
 34 36 0 0 0
SMALL
GASTEIGER

@<TRIPOS>ATOM
      1 P           3.4962   -1.5833    2.4412 P.3     1  UNL1       -0.0131
      2 C           5.2957   -1.3175    2.5572 C.ar    1  UNL1       -0.0147
      3 C           6.0165   -1.2358    1.3660 C.ar    1  UNL1       -0.0535
      4 C           7.3652   -0.9364    1.3904 C.ar    1  UNL1       -0.0611
      5 C           7.9997   -0.6931    2.5988 C.ar    1  UNL1       -0.0617
      6 C           7.2813   -0.7453    3.7817 C.ar    1  UNL1       -0.0611
      7 C           5.9331   -1.0546    3.7653 C.ar    1  UNL1       -0.0535
      8 C           3.3817   -3.0130    1.3110 C.ar    1  UNL1       -0.0147
      9 C           2.2296   -3.1324    0.5408 C.ar    1  UNL1       -0.0535
     10 C           2.0676   -4.2177   -0.3012 C.ar    1  UNL1       -0.0611
     11 C           3.0529   -5.1880   -0.3799 C.ar    1  UNL1       -0.0617
     12 C           4.2025   -5.0712    0.3846 C.ar    1  UNL1       -0.0611
     13 C           4.3689   -3.9897    1.2301 C.ar    1  UNL1       -0.0535
     14 C           3.0319   -2.3689    4.0162 C.ar    1  UNL1       -0.0147
     15 C           3.8333   -3.3506    4.5931 C.ar    1  UNL1       -0.0535
     16 C           3.4375   -3.9585    5.7694 C.ar    1  UNL1       -0.0611
     17 C           2.2417   -3.5986    6.3715 C.ar    1  UNL1       -0.0617
     18 C           1.4375   -2.6315    5.7926 C.ar    1  UNL1       -0.0611
     19 C           1.8277   -2.0183    4.6150 C.ar    1  UNL1       -0.0535
     20 H           5.5108   -1.4168    0.4251 H       1  UNL1        0.0624
     21 H           7.9216   -0.8879    0.4652 H       1  UNL1        0.0618
     22 H           9.0533   -0.4556    2.6180 H       1  UNL1        0.0618
     23 H           7.7721   -0.5416    4.7223 H       1  UNL1        0.0618
     24 H           5.3698   -1.0817    4.6880 H       1  UNL1        0.0624
     25 H           1.4708   -2.3655    0.6020 H       1  UNL1        0.0624
     26 H           1.1724   -4.3026   -0.8982 H       1  UNL1        0.0618
     27 H           2.9293   -6.0342   -1.0395 H       1  UNL1        0.0618
     28 H           4.9742   -5.8248    0.3210 H       1  UNL1        0.0618
     29 H           5.2755   -3.8994    1.8127 H       1  UNL1        0.0624
     30 H           4.7675   -3.6325    4.1271 H       1  UNL1        0.0624
     31 H           4.0641   -4.7153    6.2190 H       1  UNL1        0.0618
     32 H           1.9390   -4.0747    7.2925 H       1  UNL1        0.0618
     33 H           0.5043   -2.3510    6.2573 H       1  UNL1        0.0618
     34 H           1.2051   -1.2600    4.1632 H       1  UNL1        0.0624
@<TRIPOS>BOND
     1    27    11    1
     2    26    10    1
     3    11    10   ar
     4    11    12   ar
     5    10     9   ar
     6    28    12    1
     7    12    13   ar
     8    20     3    1
     9    21     4    1
    10     9    25    1
    11     9     8   ar
    12    13     8   ar
    13    13    29    1
    14     8     1    1
    15     3     4   ar
    16     3     2   ar
    17     4     5   ar
    18     1     2    1
    19     1    14    1
    20     2     7   ar
    21     5    22    1
    22     5     6   ar
    23     7     6   ar
    24     7    24    1
    25     6    23    1
    26    14    15   ar
    27    14    19   ar
    28    30    15    1
    29    34    19    1
    30    15    16   ar
    31    19    18   ar
    32    16    31    1
    33    16    17   ar
    34    18    33    1
    35    18    17   ar
    36    17    32    1
