@<TRIPOS>MOLECULE
1
 13 12 0 0 0
SMALL
GASTEIGER

@<TRIPOS>ATOM
      1 P           5.8657    6.3350    6.9607 P.3     1  UNL1       -0.1154
      2 C           7.1540    5.3728    6.0607 C.3     1  UNL1       -0.0447
      3 C           6.0522    5.5882    8.6336 C.3     1  UNL1       -0.0447
      4 C           4.3832    5.4266    6.3808 C.3     1  UNL1       -0.0447
      5 H           6.0301    4.4995    8.5669 H       1  UNL1        0.0277
      6 H           5.2426    5.9259    9.2794 H       1  UNL1        0.0277
      7 H           7.0025    5.9041    9.0643 H       1  UNL1        0.0277
      8 H           8.1399    5.6814    6.4020 H       1  UNL1        0.0277
      9 H           7.0683    5.5967    4.9997 H       1  UNL1        0.0277
     10 H           7.0317    4.3016    6.2240 H       1  UNL1        0.0277
     11 H           3.5136    5.7645    6.9397 H       1  UNL1        0.0277
     12 H           4.5120    4.3527    6.5259 H       1  UNL1        0.0277
     13 H           4.2340    5.6407    5.3225 H       1  UNL1        0.0277
@<TRIPOS>BOND
     1     9     2    1
     2    13     4    1
     3     2    10    1
     4     2     8    1
     5     2     1    1
     6     4    12    1
     7     4    11    1
     8     4     1    1
     9     1     3    1
    10     5     3    1
    11     3     7    1
    12     3     6    1
