@<TRIPOS>MOLECULE
1
 13 12 0 0 0
SMALL
GASTEIGER

@<TRIPOS>ATOM
      1 P           4.5221   10.7546    7.0321 P.3     1  UNL1       -0.1154
      2 C           4.3427   11.5122    8.7018 C.3     1  UNL1       -0.0447
      3 C           5.0704   12.2283    6.0787 C.3     1  UNL1       -0.0447
      4 C           2.7595   10.7174    6.5296 C.3     1  UNL1       -0.0447
      5 H           3.7570   12.4306    8.6418 H       1  UNL1        0.0277
      6 H           5.3303   11.7372    9.1038 H       1  UNL1        0.0277
      7 H           3.8442   10.8091    9.3686 H       1  UNL1        0.0277
      8 H           4.3837   13.0646    6.2139 H       1  UNL1        0.0277
      9 H           5.1202   11.9509    5.0281 H       1  UNL1        0.0277
     10 H           6.0656   12.5201    6.4079 H       1  UNL1        0.0277
     11 H           2.6991   10.4282    5.4804 H       1  UNL1        0.0277
     12 H           2.2999   11.6973    6.6693 H       1  UNL1        0.0277
     13 H           2.2303    9.9836    7.1337 H       1  UNL1        0.0277
@<TRIPOS>BOND
     1     9     3    1
     2    11     4    1
     3     3     8    1
     4     3    10    1
     5     3     1    1
     6     4    12    1
     7     4     1    1
     8     4    13    1
     9     1     2    1
    10     5     2    1
    11     2     6    1
    12     2     7    1
