@<TRIPOS>MOLECULE
1
 32 31 0 0 0
SMALL
GASTEIGER

@<TRIPOS>ATOM
      1 P          -1.2330    9.9699   13.9986 P.3     1  UNL1        0.0000
      2 SI         -0.7488   10.5623   16.0955 Si      1  UNL1        0.0000
      3 C          -2.2723   10.1143   17.2135 C.3     1  UNL1        0.0000
      4 H          -2.9140   11.0013   17.2464 H       1  UNL1        0.0000
      5 C          -3.1043    8.9789   16.6296 C.3     1  UNL1        0.0000
      6 H          -2.5394    8.0511   16.6305 H       1  UNL1        0.0000
      7 H          -3.3744    9.2015   15.6003 H       1  UNL1        0.0000
      8 H          -4.0140    8.8292   17.2106 H       1  UNL1        0.0000
      9 C          -1.8780    9.7816   18.6510 C.3     1  UNL1        0.0000
     10 H          -2.7680    9.6163   19.2575 H       1  UNL1        0.0000
     11 H          -1.3044   10.5858   19.1015 H       1  UNL1        0.0000
     12 H          -1.2772    8.8774   18.6848 H       1  UNL1        0.0000
     13 C          -0.4333   12.4676   16.2828 C.3     1  UNL1        0.0000
     14 H           0.5460   12.6973   15.8570 H       1  UNL1        0.0000
     15 C          -1.4756   13.2456   15.4877 C.3     1  UNL1        0.0000
     16 H          -2.4725   13.0615   15.8824 H       1  UNL1        0.0000
     17 H          -1.4593   12.9331   14.4410 H       1  UNL1        0.0000
     18 H          -1.2869   14.3183   15.5405 H       1  UNL1        0.0000
     19 C          -0.4162   12.9406   17.7330 C.3     1  UNL1        0.0000
     20 H          -0.1753   14.0023   17.7829 H       1  UNL1        0.0000
     21 H           0.3292   12.3967   18.3074 H       1  UNL1        0.0000
     22 H          -1.3877   12.7953   18.1972 H       1  UNL1        0.0000
     23 C           0.8253    9.5498   16.5875 C.3     1  UNL1        0.0000
     24 H           1.0766    9.7347   17.6356 H       1  UNL1        0.0000
     25 C           2.0151    9.9632   15.7282 C.3     1  UNL1        0.0000
     26 H           2.8784    9.3320   15.9363 H       1  UNL1        0.0000
     27 H           2.2966   10.9953   15.9166 H       1  UNL1        0.0000
     28 H           1.7581    9.8594   14.6735 H       1  UNL1        0.0000
     29 C           0.5716    8.0579   16.4084 C.3     1  UNL1        0.0000
     30 H           0.2439    7.8646   15.3886 H       1  UNL1        0.0000
     31 H          -0.1995    7.7037   17.0858 H       1  UNL1        0.0000
     32 H           1.4796    7.4858   16.5976 H       1  UNL1        0.0000
@<TRIPOS>BOND
     1     1     2    1
     2    17    15    1
     3    28    25    1
     4    30    29    1
     5    15    18    1
     6    15    16    1
     7    15    13    1
     8     7     5    1
     9    25    27    1
    10    25    26    1
    11    25    23    1
    12    14    13    1
    13     2    13    1
    14     2    23    1
    15     2     3    1
    16    13    19    1
    17    29    23    1
    18    29    32    1
    19    29    31    1
    20    23    24    1
    21     5     6    1
    22     5     8    1
    23     5     3    1
    24     3     4    1
    25     3     9    1
    26    19    20    1
    27    19    22    1
    28    19    21    1
    29     9    12    1
    30     9    11    1
    31     9    10    1
