@<TRIPOS>MOLECULE
1
 13 12 0 0 0
SMALL
GASTEIGER

@<TRIPOS>ATOM
      1 P           5.9638   14.3940   15.5139 P.3     1  UNL1       -0.1154
      2 C           6.1497   15.8318   16.6440 C.3     1  UNL1       -0.0447
      3 C           7.6829   14.2791   14.8592 C.3     1  UNL1       -0.0447
      4 C           5.9674   13.0068   16.7095 C.3     1  UNL1       -0.0447
      5 H           6.3864   16.7216   16.0642 H       1  UNL1        0.0277
      6 H           6.9436   15.6515   17.3680 H       1  UNL1        0.0277
      7 H           5.2062   15.9916   17.1584 H       1  UNL1        0.0277
      8 H           7.8799   15.1294   14.2110 H       1  UNL1        0.0277
      9 H           7.7825   13.3658   14.2785 H       1  UNL1        0.0277
     10 H           8.3998   14.2706   15.6795 H       1  UNL1        0.0277
     11 H           5.9950   12.0751   16.1501 H       1  UNL1        0.0277
     12 H           5.0395   13.0431   17.2733 H       1  UNL1        0.0277
     13 H           6.8243   13.0654   17.3797 H       1  UNL1        0.0277
@<TRIPOS>BOND
     1     8     3    1
     2     9     3    1
     3     3     1    1
     4     3    10    1
     5     1     2    1
     6     1     4    1
     7     5     2    1
     8    11     4    1
     9     2     7    1
    10     2     6    1
    11     4    12    1
    12     4    13    1
