@<TRIPOS>MOLECULE
1
 13 12 0 0 0
SMALL
GASTEIGER

@<TRIPOS>ATOM
      1 P           1.5933   15.1156   12.7171 P.3     1  UNL1       -0.1154
      2 C           0.1690   15.3313   13.8510 C.3     1  UNL1       -0.0447
      3 C           1.4431   16.6727   11.7373 C.3     1  UNL1       -0.0447
      4 C           0.8942   13.8863   11.5466 C.3     1  UNL1       -0.0447
      5 H           0.0175   14.4004   14.3931 H       1  UNL1        0.0277
      6 H          -0.7331   15.5935   13.2988 H       1  UNL1        0.0277
      7 H           0.4075   16.1129   14.5685 H       1  UNL1        0.0277
      8 H           2.2020   16.6960   10.9598 H       1  UNL1        0.0277
      9 H           1.5970   17.5231   12.3985 H       1  UNL1        0.0277
     10 H           0.4538   16.7408   11.2866 H       1  UNL1        0.0277
     11 H           1.5785   13.7324   10.7169 H       1  UNL1        0.0277
     12 H          -0.0718   14.2210   11.1706 H       1  UNL1        0.0277
     13 H           0.7753   12.9468   12.0815 H       1  UNL1        0.0277
@<TRIPOS>BOND
     1    11     4    1
     2     8     3    1
     3    12     4    1
     4    10     3    1
     5     4    13    1
     6     4     1    1
     7     3     9    1
     8     3     1    1
     9     1     2    1
    10     6     2    1
    11     2     5    1
    12     2     7    1
