@<TRIPOS>MOLECULE
1
 13 12 0 0 0
SMALL
GASTEIGER

@<TRIPOS>ATOM
      1 P           3.3594    2.7270   -1.0053 P.3     1  UNL1       -0.1154
      2 C           1.8153    1.8239   -1.4245 C.3     1  UNL1       -0.0447
      3 C           3.9047    3.2558   -2.6848 C.3     1  UNL1       -0.0447
      4 C           4.5379    1.3499   -0.7231 C.3     1  UNL1       -0.0447
      5 H           1.0836    2.5330   -1.8073 H       1  UNL1        0.0277
      6 H           1.4172    1.3798   -0.5154 H       1  UNL1        0.0277
      7 H           2.0010    1.0501   -2.1684 H       1  UNL1        0.0277
      8 H           3.2061    3.9820   -3.0919 H       1  UNL1        0.0277
      9 H           3.9642    2.3939   -3.3485 H       1  UNL1        0.0277
     10 H           4.8849    3.7212   -2.6095 H       1  UNL1        0.0277
     11 H           5.5396    1.7635   -0.6467 H       1  UNL1        0.0277
     12 H           4.4934    0.6318   -1.5413 H       1  UNL1        0.0277
     13 H           4.3012    0.8582    0.2168 H       1  UNL1        0.0277
@<TRIPOS>BOND
     1     9     3    1
     2     8     3    1
     3     3    10    1
     4     3     1    1
     5     7     2    1
     6     5     2    1
     7    12     4    1
     8     2     1    1
     9     2     6    1
    10     1     4    1
    11     4    11    1
    12     4    13    1
