@<TRIPOS>MOLECULE
1
 13 12 0 0 0
SMALL
GASTEIGER

@<TRIPOS>ATOM
      1 P           2.5233    6.4444    2.5638 P.3     1  UNL1       -0.1154
      2 C           2.4656    5.9938    4.3379 C.3     1  UNL1       -0.0447
      3 C           3.6435    7.9033    2.6492 C.3     1  UNL1       -0.0447
      4 C           0.8838    7.2570    2.3732 C.3     1  UNL1       -0.0447
      5 H           3.4518    5.6605    4.6498 H       1  UNL1        0.0277
      6 H           1.7747    5.1661    4.4693 H       1  UNL1        0.0277
      7 H           2.1539    6.8459    4.9413 H       1  UNL1        0.0277
      8 H           3.7095    8.3788    1.6744 H       1  UNL1        0.0277
      9 H           4.6334    7.5558    2.9365 H       1  UNL1        0.0277
     10 H           3.2799    8.6197    3.3850 H       1  UNL1        0.0277
     11 H           0.8453    7.7877    1.4246 H       1  UNL1        0.0277
     12 H           0.7024    7.9564    3.1886 H       1  UNL1        0.0277
     13 H           0.1176    6.4842    2.3743 H       1  UNL1        0.0277
@<TRIPOS>BOND
     1    11     4    1
     2     8     3    1
     3     4    13    1
     4     4     1    1
     5     4    12    1
     6     1     3    1
     7     1     2    1
     8     3     9    1
     9     3    10    1
    10     2     6    1
    11     2     5    1
    12     2     7    1
