@<TRIPOS>MOLECULE
1
 34 36 0 0 0
SMALL
GASTEIGER

@<TRIPOS>ATOM
      1 P           4.1389    1.5068    3.8160 P.3     1  UNL1       -0.0131
      2 C           3.4416   -0.1856    3.9453 C.ar    1  UNL1       -0.0147
      3 C           2.5086   -0.5134    2.9629 C.ar    1  UNL1       -0.0535
      4 C           1.8848   -1.7456    2.9626 C.ar    1  UNL1       -0.0611
      5 C           2.1892   -2.6676    3.9514 C.ar    1  UNL1       -0.0617
      6 C           3.1109   -2.3493    4.9345 C.ar    1  UNL1       -0.0611
      7 C           3.7349   -1.1136    4.9365 C.ar    1  UNL1       -0.0535
      8 C           5.6205    1.1552    2.8071 C.ar    1  UNL1       -0.0147
      9 C           5.9547    1.9700    1.7344 C.ar    1  UNL1       -0.0535
     10 C           7.0820    1.6978    0.9782 C.ar    1  UNL1       -0.0611
     11 C           7.8777    0.6064    1.2838 C.ar    1  UNL1       -0.0617
     12 C           7.5443   -0.2142    2.3498 C.ar    1  UNL1       -0.0611
     13 C           6.4215    0.0575    3.1091 C.ar    1  UNL1       -0.0535
     14 C           4.8570    1.7572    5.4684 C.ar    1  UNL1       -0.0147
     15 C           6.1954    2.0904    5.6445 C.ar    1  UNL1       -0.0535
     16 C           6.6954    2.3140    6.9152 C.ar    1  UNL1       -0.0611
     17 C           5.8659    2.2110    8.0201 C.ar    1  UNL1       -0.0617
     18 C           4.5303    1.8844    7.8498 C.ar    1  UNL1       -0.0611
     19 C           4.0258    1.6598    6.5816 C.ar    1  UNL1       -0.0535
     20 H           2.2729    0.2193    2.1827 H       1  UNL1        0.0624
     21 H           1.1578   -1.9834    2.1992 H       1  UNL1        0.0618
     22 H           1.7010   -3.6312    3.9602 H       1  UNL1        0.0618
     23 H           3.3404   -3.0656    5.7105 H       1  UNL1        0.0618
     24 H           4.4370   -0.8661    5.7211 H       1  UNL1        0.0624
     25 H           5.3266    2.8186    1.5097 H       1  UNL1        0.0624
     26 H           7.3401    2.3378    0.1470 H       1  UNL1        0.0618
     27 H           8.7563    0.3926    0.6926 H       1  UNL1        0.0618
     28 H           8.1618   -1.0680    2.5892 H       1  UNL1        0.0618
     29 H           6.1645   -0.5832    3.9413 H       1  UNL1        0.0624
     30 H           6.8446    2.1780    4.7859 H       1  UNL1        0.0624
     31 H           7.7374    2.5716    7.0436 H       1  UNL1        0.0618
     32 H           6.2598    2.3879    9.0105 H       1  UNL1        0.0618
     33 H           3.8775    1.8074    8.7071 H       1  UNL1        0.0618
     34 H           2.9808    1.4200    6.4471 H       1  UNL1        0.0624
@<TRIPOS>BOND
     1    26    10    1
     2    27    11    1
     3    10    11   ar
     4    10     9   ar
     5    11    12   ar
     6    25     9    1
     7     9     8   ar
     8    20     3    1
     9    21     4    1
    10    12    28    1
    11    12    13   ar
    12     8    13   ar
    13     8     1    1
    14     4     3   ar
    15     4     5   ar
    16     3     2   ar
    17    13    29    1
    18     1     2    1
    19     1    14    1
    20     2     7   ar
    21     5    22    1
    22     5     6   ar
    23    30    15    1
    24     6     7   ar
    25     6    23    1
    26     7    24    1
    27    14    15   ar
    28    14    19   ar
    29    15    16   ar
    30    34    19    1
    31    19    18   ar
    32    16    31    1
    33    16    17   ar
    34    18    17   ar
    35    18    33    1
    36    17    32    1
