@<TRIPOS>MOLECULE
1
 34 36 0 0 0
SMALL
GASTEIGER

@<TRIPOS>ATOM
      1 P           0.3493    3.2211    2.0600 P.3     1  UNL1       -0.0131
      2 C          -0.4066    1.6746    1.4464 C.ar    1  UNL1       -0.0147
      3 C          -0.4732    1.3694    0.0912 C.ar    1  UNL1       -0.0535
      4 C          -0.9690    0.1437   -0.3184 C.ar    1  UNL1       -0.0611
      5 C          -1.3927   -0.7859    0.6168 C.ar    1  UNL1       -0.0617
      6 C          -1.3127   -0.4926    1.9695 C.ar    1  UNL1       -0.0611
      7 C          -0.8150    0.7278    2.3855 C.ar    1  UNL1       -0.0535
      8 C          -0.9565    3.9149    3.1317 C.ar    1  UNL1       -0.0147
      9 C          -0.5841    4.9184    4.0203 C.ar    1  UNL1       -0.0535
     10 C          -1.5270    5.5004    4.8468 C.ar    1  UNL1       -0.0611
     11 C          -2.8482    5.0875    4.7921 C.ar    1  UNL1       -0.0617
     12 C          -3.2233    4.0896    3.9089 C.ar    1  UNL1       -0.0611
     13 C          -2.2836    3.5025    3.0798 C.ar    1  UNL1       -0.0535
     14 C           0.2014    4.3067    0.5934 C.ar    1  UNL1       -0.0147
     15 C           1.3369    4.6049   -0.1508 C.ar    1  UNL1       -0.0535
     16 C           1.2410    5.3920   -1.2847 C.ar    1  UNL1       -0.0611
     17 C           0.0123    5.8947   -1.6792 C.ar    1  UNL1       -0.0617
     18 C          -1.1214    5.6065   -0.9368 C.ar    1  UNL1       -0.0611
     19 C          -1.0307    4.8145    0.1933 C.ar    1  UNL1       -0.0535
     20 H          -0.1388    2.0914   -0.6409 H       1  UNL1        0.0624
     21 H          -1.0229   -0.0868   -1.3727 H       1  UNL1        0.0618
     22 H          -1.7799   -1.7409    0.2918 H       1  UNL1        0.0618
     23 H          -1.6340   -1.2183    2.7027 H       1  UNL1        0.0618
     24 H          -0.7371    0.9543    3.4411 H       1  UNL1        0.0624
     25 H           0.4525    5.2207    4.0709 H       1  UNL1        0.0624
     26 H          -1.2310    6.2734    5.5409 H       1  UNL1        0.0618
     27 H          -3.5844    5.5377    5.4421 H       1  UNL1        0.0618
     28 H          -4.2523    3.7619    3.8670 H       1  UNL1        0.0618
     29 H          -2.5837    2.7162    2.4003 H       1  UNL1        0.0624
     30 H           2.2931    4.2234    0.1781 H       1  UNL1        0.0624
     31 H           2.1262    5.6137   -1.8634 H       1  UNL1        0.0618
     32 H          -0.0631    6.5118   -2.5626 H       1  UNL1        0.0618
     33 H          -2.0811    5.9986   -1.2411 H       1  UNL1        0.0618
     34 H          -1.9188    4.5919    0.7676 H       1  UNL1        0.0624
@<TRIPOS>BOND
     1    32    17    1
     2    31    16    1
     3    17    16   ar
     4    17    18   ar
     5    21     4    1
     6    16    15   ar
     7    33    18    1
     8    18    19   ar
     9    20     3    1
    10     4     3   ar
    11     4     5   ar
    12    15    30    1
    13    15    14   ar
    14     3     2   ar
    15    19    14   ar
    16    19    34    1
    17    22     5    1
    18    14     1    1
    19     5     6   ar
    20     2     1    1
    21     2     7   ar
    22     6     7   ar
    23     6    23    1
    24     1     8    1
    25     7    24    1
    26    29    13    1
    27    13     8   ar
    28    13    12   ar
    29     8     9   ar
    30    28    12    1
    31    12    11   ar
    32     9    25    1
    33     9    10   ar
    34    11    10   ar
    35    11    27    1
    36    10    26    1
