@<TRIPOS>MOLECULE
1
 34 36 0 0 0
SMALL
GASTEIGER

@<TRIPOS>ATOM
      1 P           4.0710    4.2642    1.7303 P.3     1  UNL1       -0.0131
      2 C           2.7431    4.1017    0.4817 C.ar    1  UNL1       -0.0147
      3 C           2.3833    2.8071    0.1169 C.ar    1  UNL1       -0.0535
      4 H           2.8778    1.9737    0.5980 H       1  UNL1        0.0624
      5 C           1.3964    2.5932   -0.8261 C.ar    1  UNL1       -0.0611
      6 H           1.1235    1.5859   -1.1051 H       1  UNL1        0.0618
      7 C           0.7514    3.6735   -1.4082 C.ar    1  UNL1       -0.0617
      8 H          -0.0246    3.5098   -2.1412 H       1  UNL1        0.0618
      9 C           1.0974    4.9632   -1.0420 C.ar    1  UNL1       -0.0611
     10 H           0.5910    5.8060   -1.4898 H       1  UNL1        0.0618
     11 C           2.0899    5.1816   -0.1014 C.ar    1  UNL1       -0.0535
     12 H           2.3524    6.1913    0.1807 H       1  UNL1        0.0624
     13 C           5.5522    4.2522    0.6565 C.ar    1  UNL1       -0.0147
     14 C           6.7821    4.0748    1.2842 C.ar    1  UNL1       -0.0535
     15 H           6.8033    3.9236    2.3556 H       1  UNL1        0.0624
     16 C           7.9504    4.0680    0.5465 C.ar    1  UNL1       -0.0611
     17 H           8.9014    3.9306    1.0402 H       1  UNL1        0.0618
     18 C           7.8999    4.2304   -0.8292 C.ar    1  UNL1       -0.0617
     19 H           8.8107    4.2197   -1.4094 H       1  UNL1        0.0618
     20 C           6.6788    4.3983   -1.4606 C.ar    1  UNL1       -0.0611
     21 H           6.6376    4.5191   -2.5333 H       1  UNL1        0.0618
     22 C           5.5064    4.4108   -0.7242 C.ar    1  UNL1       -0.0535
     23 H           4.5566    4.5400   -1.2237 H       1  UNL1        0.0624
     24 C           3.9515    6.0460    2.1282 C.ar    1  UNL1       -0.0147
     25 C           3.1084    6.4000    3.1778 C.ar    1  UNL1       -0.0535
     26 H           2.5971    5.6166    3.7220 H       1  UNL1        0.0624
     27 C           2.9486    7.7261    3.5316 C.ar    1  UNL1       -0.0611
     28 H           2.2924    7.9935    4.3471 H       1  UNL1        0.0618
     29 C           3.6375    8.7125    2.8431 C.ar    1  UNL1       -0.0617
     30 H           3.5192    9.7495    3.1205 H       1  UNL1        0.0618
     31 C           4.4845    8.3661    1.8037 C.ar    1  UNL1       -0.0611
     32 H           5.0263    9.1334    1.2700 H       1  UNL1        0.0618
     33 C           4.6435    7.0387    1.4432 C.ar    1  UNL1       -0.0535
     34 H           5.3079    6.7757    0.6324 H       1  UNL1        0.0624
@<TRIPOS>BOND
     1    21    20    1
     2     8     7    1
     3    10     9    1
     4    20    18   ar
     5    20    22   ar
     6    19    18    1
     7     7     9   ar
     8     7     5   ar
     9    23    22    1
    10     6     5    1
    11     9    11   ar
    12    18    16   ar
    13     5     3   ar
    14    22    13   ar
    15    11    12    1
    16    11     2   ar
    17     3     2   ar
    18     3     4    1
    19     2     1    1
    20    16    17    1
    21    16    14   ar
    22    34    33    1
    23    13    14   ar
    24    13     1    1
    25    32    31    1
    26    14    15    1
    27    33    31   ar
    28    33    24   ar
    29     1    24    1
    30    31    29   ar
    31    24    25   ar
    32    29    30    1
    33    29    27   ar
    34    25    27   ar
    35    25    26    1
    36    27    28    1
