@<TRIPOS>MOLECULE
1
 49 52 0 0 0
SMALL
GASTEIGER

@<TRIPOS>ATOM
      1 P           4.7564    5.3045    8.1090 P.3     1  UNL1       -0.0389
      2 C           4.7303    3.7030    7.2464 C.ar    1  UNL1       -0.0186
      3 C           3.5877    2.9082    7.2512 C.ar    1  UNL1       -0.0538
      4 C           3.5640    1.7294    6.5283 C.ar    1  UNL1       -0.0612
      5 C           4.6771    1.3341    5.8058 C.ar    1  UNL1       -0.0617
      6 C           5.8237    2.1116    5.8173 C.ar    1  UNL1       -0.0612
      7 C           5.8535    3.2924    6.5362 C.ar    1  UNL1       -0.0538
      8 C           3.6562    4.9782    9.5153 C.ar    1  UNL1       -0.0186
      9 C           4.1280    4.0391   10.4323 C.ar    1  UNL1       -0.0538
     10 C           3.4053    3.7532   11.5735 C.ar    1  UNL1       -0.0612
     11 C           2.2086    4.4113   11.8172 C.ar    1  UNL1       -0.0617
     12 C           1.7389    5.3480   10.9134 C.ar    1  UNL1       -0.0612
     13 C           2.4580    5.6348    9.7646 C.ar    1  UNL1       -0.0538
     14 C           3.7502    6.3825    7.0064 C.3     1  UNL1        0.0041
     15 P           2.1619    5.5858    6.4365 P.3     1  UNL1       -0.0389
     16 C           2.6343    4.8734    4.8163 C.ar    1  UNL1       -0.0186
     17 C           3.9245    4.7215    4.3292 C.ar    1  UNL1       -0.0538
     18 C           4.1382    4.0909    3.1161 C.ar    1  UNL1       -0.0612
     19 C           3.0718    3.6117    2.3763 C.ar    1  UNL1       -0.0617
     20 C           1.7795    3.7625    2.8545 C.ar    1  UNL1       -0.0612
     21 C           1.5651    4.3803    4.0702 C.ar    1  UNL1       -0.0538
     22 C           1.3891    7.1366    5.8188 C.ar    1  UNL1       -0.0186
     23 C           0.2104    7.5633    6.4182 C.ar    1  UNL1       -0.0538
     24 C          -0.3982    8.7368    6.0084 C.ar    1  UNL1       -0.0612
     25 C           0.1703    9.4889    4.9951 C.ar    1  UNL1       -0.0617
     26 C           1.3445    9.0654    4.3919 C.ar    1  UNL1       -0.0612
     27 C           1.9549    7.8938    4.7981 C.ar    1  UNL1       -0.0538
     28 H           2.7247    3.2058    7.8315 H       1  UNL1        0.0624
     29 H           2.6738    1.1180    6.5301 H       1  UNL1        0.0618
     30 H           4.6538    0.4147    5.2400 H       1  UNL1        0.0618
     31 H           6.6969    1.7977    5.2654 H       1  UNL1        0.0618
     32 H           6.7474    3.9053    6.5472 H       1  UNL1        0.0624
     33 H           5.0685    3.5405   10.2324 H       1  UNL1        0.0624
     34 H           3.7742    3.0219   12.2775 H       1  UNL1        0.0618
     35 H           1.6445    4.1944   12.7122 H       1  UNL1        0.0618
     36 H           0.8073    5.8615   11.1024 H       1  UNL1        0.0618
     37 H           2.0716    6.3669    9.0683 H       1  UNL1        0.0624
     38 H           4.7778    5.0784    4.8834 H       1  UNL1        0.0624
     39 H           5.1489    3.9769    2.7540 H       1  UNL1        0.0618
     40 H           3.2448    3.1184    1.4310 H       1  UNL1        0.0618
     41 H           0.9423    3.3897    2.2823 H       1  UNL1        0.0618
     42 H           0.5595    4.4912    4.4564 H       1  UNL1        0.0624
     43 H          -0.2291    6.9656    7.2060 H       1  UNL1        0.0624
     44 H          -1.3151    9.0630    6.4775 H       1  UNL1        0.0618
     45 H          -0.3020   10.4049    4.6719 H       1  UNL1        0.0618
     46 H           1.7846    9.6534    3.6000 H       1  UNL1        0.0618
     47 H           2.8676    7.5622    4.3212 H       1  UNL1        0.0624
     48 H           4.3655    6.7093    6.1639 H       1  UNL1        0.0373
     49 H           3.4880    7.2723    7.5908 H       1  UNL1        0.0373
@<TRIPOS>BOND
     1    40    19    1
     2    41    20    1
     3    19    20   ar
     4    19    18   ar
     5    39    18    1
     6    20    21   ar
     7    18    17   ar
     8    46    26    1
     9    21    42    1
    10    21    16   ar
    11    47    27    1
    12    17    16   ar
    13    17    38    1
    14    26    27   ar
    15    26    25   ar
    16    45    25    1
    17    27    22   ar
    18    16    15    1
    19    25    24   ar
    20    30     5    1
    21    31     6    1
    22     5     6   ar
    23     5     4   ar
    24     6     7   ar
    25    22    23   ar
    26    22    15    1
    27    24    23   ar
    28    24    44    1
    29    48    14    1
    30    23    43    1
    31    15    14    1
    32     4    29    1
    33     4     3   ar
    34     7    32    1
    35     7     2   ar
    36    14    49    1
    37    14     1    1
    38     2     3   ar
    39     2     1    1
    40     3    28    1
    41     1     8    1
    42    37    13    1
    43     8    13   ar
    44     8     9   ar
    45    13    12   ar
    46    33     9    1
    47     9    10   ar
    48    12    36    1
    49    12    11   ar
    50    10    11   ar
    51    10    34    1
    52    11    35    1
