@<TRIPOS>MOLECULE
1
 31 30 0 0 0
SMALL
GASTEIGER

@<TRIPOS>ATOM
      1 P          10.6707   -0.7893    1.0946 P.3     1  UNL1       -0.0980
      2 C           9.0017   -0.0459    0.6465 C.3     1  UNL1       -0.0257
      3 H           8.5400    0.1329    1.6282 H       1  UNL1        0.0344
      4 C           9.1944    1.2999   -0.0545 C.3     1  UNL1       -0.0587
      5 H           9.3844    1.1488   -1.1135 H       1  UNL1        0.0236
      6 H          10.0349    1.8583    0.3626 H       1  UNL1        0.0236
      7 H           8.2932    1.9056    0.0295 H       1  UNL1        0.0236
      8 C           8.0266   -0.9166   -0.1432 C.3     1  UNL1       -0.0587
      9 H           7.0847   -0.3776   -0.2372 H       1  UNL1        0.0236
     10 H           7.8164   -1.8592    0.3534 H       1  UNL1        0.0236
     11 H           8.3872   -1.1235   -1.1440 H       1  UNL1        0.0236
     12 C          10.2216   -2.5337    1.5937 C.3     1  UNL1       -0.0257
     13 H           9.7070   -2.9852    0.7392 H       1  UNL1        0.0344
     14 C           9.2739   -2.5438    2.7901 C.3     1  UNL1       -0.0587
     15 H           8.9992   -3.5692    3.0299 H       1  UNL1        0.0236
     16 H           8.3563   -1.9949    2.5903 H       1  UNL1        0.0236
     17 H           9.7577   -2.1181    3.6651 H       1  UNL1        0.0236
     18 C          11.4753   -3.3485    1.9005 C.3     1  UNL1       -0.0587
     19 H          12.1154   -2.8235    2.6077 H       1  UNL1        0.0236
     20 H          12.0488   -3.5584    1.0019 H       1  UNL1        0.0236
     21 H          11.1933   -4.3024    2.3414 H       1  UNL1        0.0236
     22 C          11.6579   -1.1040   -0.4729 C.3     1  UNL1       -0.0257
     23 H          12.4728   -1.7386   -0.1011 H       1  UNL1        0.0344
     24 C          10.9397   -1.8556   -1.5917 C.3     1  UNL1       -0.0587
     25 H          10.2630   -1.1988   -2.1310 H       1  UNL1        0.0236
     26 H          10.3888   -2.7205   -1.2336 H       1  UNL1        0.0236
     27 H          11.6812   -2.2111   -2.3046 H       1  UNL1        0.0236
     28 C          12.3000    0.1598   -1.0422 C.3     1  UNL1       -0.0587
     29 H          13.0159   -0.1220   -1.8115 H       1  UNL1        0.0236
     30 H          12.8357    0.7157   -0.2738 H       1  UNL1        0.0236
     31 H          11.5647    0.8145   -1.4995 H       1  UNL1        0.0236
@<TRIPOS>BOND
     1    27    24    1
     2    25    24    1
     3    29    28    1
     4    24    26    1
     5    24    22    1
     6    31    28    1
     7    11     8    1
     8     5     4    1
     9    28    22    1
    10    28    30    1
    11    22    23    1
    12    22     1    1
    13     9     8    1
    14     8    10    1
    15     8     2    1
    16     4     7    1
    17     4     6    1
    18     4     2    1
    19     2     1    1
    20     2     3    1
    21    13    12    1
    22    20    18    1
    23     1    12    1
    24    12    18    1
    25    12    14    1
    26    18    21    1
    27    18    19    1
    28    16    14    1
    29    14    15    1
    30    14    17    1
