@<TRIPOS>MOLECULE
1
 34 36 0 0 0
SMALL
GASTEIGER

@<TRIPOS>ATOM
      1 P           0.7375    2.5276    4.5405 P.3     1  UNL1       -0.0131
      2 C           0.0325    4.0053    5.3364 C.ar    1  UNL1       -0.0147
      3 C           0.6523    5.2491    5.3178 C.ar    1  UNL1       -0.0535
      4 H           1.6306    5.3584    4.8709 H       1  UNL1        0.0624
      5 C           0.0168    6.3464    5.8743 C.ar    1  UNL1       -0.0611
      6 H           0.5028    7.3114    5.8582 H       1  UNL1        0.0618
      7 C          -1.2358    6.2125    6.4488 C.ar    1  UNL1       -0.0617
      8 H          -1.7266    7.0718    6.8819 H       1  UNL1        0.0618
      9 C          -1.8613    4.9748    6.4628 C.ar    1  UNL1       -0.0611
     10 H          -2.8401    4.8664    6.9079 H       1  UNL1        0.0618
     11 C          -1.2338    3.8796    5.9026 C.ar    1  UNL1       -0.0535
     12 H          -1.7131    2.9098    5.8962 H       1  UNL1        0.0624
     13 C           0.9354    1.3417    5.9082 C.ar    1  UNL1       -0.0147
     14 C           0.7092    1.6209    7.2501 C.ar    1  UNL1       -0.0535
     15 H           0.3624    2.5989    7.5527 H       1  UNL1        0.0624
     16 C           0.9343    0.6400    8.2012 C.ar    1  UNL1       -0.0611
     17 H           0.7569    0.8576    9.2448 H       1  UNL1        0.0618
     18 C           1.3912   -0.6112    7.8224 C.ar    1  UNL1       -0.0617
     19 H           1.5687   -1.3694    8.5715 H       1  UNL1        0.0618
     20 C           1.6219   -0.8904    6.4836 C.ar    1  UNL1       -0.0611
     21 H           1.9781   -1.8660    6.1859 H       1  UNL1        0.0618
     22 C           1.3908    0.0806    5.5277 C.ar    1  UNL1       -0.0535
     23 H           1.5654   -0.1163    4.4762 H       1  UNL1        0.0624
     24 C           2.4737    3.0417    4.3010 C.ar    1  UNL1       -0.0147
     25 C           2.8620    3.5181    3.0539 C.ar    1  UNL1       -0.0535
     26 H           2.1433    3.5305    2.2443 H       1  UNL1        0.0624
     27 C           4.1578    3.9519    2.8442 C.ar    1  UNL1       -0.0611
     28 H           4.4556    4.3140    1.8708 H       1  UNL1        0.0618
     29 C           5.0751    3.9139    3.8811 C.ar    1  UNL1       -0.0617
     30 H           6.0898    4.2467    3.7176 H       1  UNL1        0.0618
     31 C           4.6927    3.4438    5.1270 C.ar    1  UNL1       -0.0611
     32 H           5.4087    3.4127    5.9356 H       1  UNL1        0.0618
     33 C           3.3973    3.0094    5.3411 C.ar    1  UNL1       -0.0535
     34 H           3.1015    2.6408    6.3132 H       1  UNL1        0.0624
@<TRIPOS>BOND
     1    28    27    1
     2    26    25    1
     3    27    25   ar
     4    27    29   ar
     5    25    24   ar
     6    30    29    1
     7    29    31   ar
     8    24     1    1
     9    24    33   ar
    10    23    22    1
    11     1     2    1
    12     1    13    1
    13     4     3    1
    14    31    33   ar
    15    31    32    1
    16     3     2   ar
    17     3     5   ar
    18     2    11   ar
    19    33    34    1
    20    22    13   ar
    21    22    20   ar
    22     6     5    1
    23     5     7   ar
    24    12    11    1
    25    11     9   ar
    26    13    14   ar
    27    21    20    1
    28     7     9   ar
    29     7     8    1
    30     9    10    1
    31    20    18   ar
    32    14    15    1
    33    14    16   ar
    34    18    16   ar
    35    18    19    1
    36    16    17    1
