@<TRIPOS>MOLECULE
1
 34 36 0 0 0
SMALL
GASTEIGER

@<TRIPOS>ATOM
      1 P           1.3741   -1.9700    6.3243 P.3     1  UNL1       -0.0131
      2 C           1.8584   -2.0679    8.0813 C.ar    1  UNL1       -0.0147
      3 C           1.0315   -2.5018    9.1106 C.ar    1  UNL1       -0.0535
      4 H           0.0309   -2.8493    8.8957 H       1  UNL1        0.0624
      5 C           1.4940   -2.4935   10.4161 C.ar    1  UNL1       -0.0611
      6 H           0.8470   -2.8305   11.2134 H       1  UNL1        0.0618
      7 C           2.7768   -2.0586   10.7021 C.ar    1  UNL1       -0.0617
      8 H           3.1297   -2.0530   11.7231 H       1  UNL1        0.0618
      9 C           3.6074   -1.6321    9.6769 C.ar    1  UNL1       -0.0611
     10 H           4.6102   -1.2961    9.8967 H       1  UNL1        0.0618
     11 C           3.1508   -1.6328    8.3733 C.ar    1  UNL1       -0.0535
     12 H           3.7910   -1.3005    7.5649 H       1  UNL1        0.0624
     13 C           2.3776   -3.3058    5.5978 C.ar    1  UNL1       -0.0147
     14 C           2.6759   -3.2207    4.2430 C.ar    1  UNL1       -0.0535
     15 H           2.3268   -2.3551    3.6892 H       1  UNL1        0.0624
     16 C           3.4253   -4.2069    3.6310 C.ar    1  UNL1       -0.0611
     17 H           3.6629   -4.1305    2.5800 H       1  UNL1        0.0618
     18 C           3.8818   -5.2851    4.3725 C.ar    1  UNL1       -0.0617
     19 H           4.4752   -6.0538    3.8994 H       1  UNL1        0.0618
     20 C           3.5855   -5.3750    5.7229 C.ar    1  UNL1       -0.0611
     21 H           3.9453   -6.2145    6.3002 H       1  UNL1        0.0618
     22 C           2.8346   -4.3901    6.3396 C.ar    1  UNL1       -0.0535
     23 H           2.6061   -4.4581    7.3944 H       1  UNL1        0.0624
     24 C          -0.2894   -2.7172    6.3396 C.ar    1  UNL1       -0.0147
     25 C          -0.5690   -3.9772    5.8270 C.ar    1  UNL1       -0.0535
     26 H           0.2170   -4.5598    5.3693 H       1  UNL1        0.0624
     27 C          -1.8540   -4.4856    5.9052 C.ar    1  UNL1       -0.0611
     28 H          -2.0647   -5.4674    5.5070 H       1  UNL1        0.0618
     29 C          -2.8650   -3.7478    6.4961 C.ar    1  UNL1       -0.0617
     30 H          -3.8632   -4.1548    6.5648 H       1  UNL1        0.0618
     31 C          -2.5960   -2.4825    6.9941 C.ar    1  UNL1       -0.0611
     32 H          -3.3850   -1.9009    7.4498 H       1  UNL1        0.0618
     33 C          -1.3177   -1.9679    6.9059 C.ar    1  UNL1       -0.0535
     34 H          -1.0956   -0.9780    7.2829 H       1  UNL1        0.0624
@<TRIPOS>BOND
     1    17    16    1
     2    16    14   ar
     3    16    18   ar
     4    15    14    1
     5    19    18    1
     6    14    13   ar
     7    18    20   ar
     8    26    25    1
     9    28    27    1
    10    13     1    1
    11    13    22   ar
    12    20    21    1
    13    20    22   ar
    14    25    27   ar
    15    25    24   ar
    16    27    29   ar
    17     1    24    1
    18     1     2    1
    19    22    23    1
    20    24    33   ar
    21    29    30    1
    22    29    31   ar
    23    33    31   ar
    24    33    34    1
    25    31    32    1
    26    12    11    1
    27     2    11   ar
    28     2     3   ar
    29    11     9   ar
    30     4     3    1
    31     3     5   ar
    32     9    10    1
    33     9     7   ar
    34     5     7   ar
    35     5     6    1
    36     7     8    1
