@<TRIPOS>MOLECULE
1
 31 30 0 0 0
SMALL
GASTEIGER

@<TRIPOS>ATOM
      1 P          -1.1670    9.5606    2.6409 P.3     1  UNL1       -0.0980
      2 C          -0.1007   10.1757    4.0593 C.3     1  UNL1       -0.0257
      3 H           0.4671   10.9820    3.5770 H       1  UNL1        0.0344
      4 C          -2.5755    8.5320    3.3520 C.3     1  UNL1       -0.0257
      5 H          -2.9810    8.0494    2.4535 H       1  UNL1        0.0344
      6 C          -2.0748   11.1288    2.1587 C.3     1  UNL1       -0.0257
      7 H          -2.7498   11.4140    2.9707 H       1  UNL1        0.0344
      8 C           0.9150    9.1160    4.4767 C.3     1  UNL1       -0.0587
      9 H           1.3323    8.6438    3.5859 H       1  UNL1        0.0236
     10 H           0.4630    8.3483    5.0976 H       1  UNL1        0.0236
     11 H           1.7275    9.5740    5.0395 H       1  UNL1        0.0236
     12 C          -0.8224   10.7583    5.2687 C.3     1  UNL1       -0.0587
     13 H          -1.5493   11.5125    4.9770 H       1  UNL1        0.0236
     14 H          -0.0955   11.2307    5.9296 H       1  UNL1        0.0236
     15 H          -1.3273    9.9813    5.8362 H       1  UNL1        0.0236
     16 C          -2.0244    7.4268    4.2504 C.3     1  UNL1       -0.0587
     17 H          -1.1328    6.9868    3.8106 H       1  UNL1        0.0236
     18 H          -2.7660    6.6385    4.3736 H       1  UNL1        0.0236
     19 H          -1.7807    7.8119    5.2373 H       1  UNL1        0.0236
     20 C          -3.7260    9.2564    4.0474 C.3     1  UNL1       -0.0587
     21 H          -4.2793    9.8895    3.3592 H       1  UNL1        0.0236
     22 H          -3.3852    9.8589    4.8837 H       1  UNL1        0.0236
     23 H          -4.4196    8.5105    4.4351 H       1  UNL1        0.0236
     24 C          -2.8825   10.8135    0.9034 C.3     1  UNL1       -0.0587
     25 H          -3.4504   11.6841    0.5783 H       1  UNL1        0.0236
     26 H          -3.5766    9.9920    1.0687 H       1  UNL1        0.0236
     27 H          -2.2017   10.5226    0.1030 H       1  UNL1        0.0236
     28 C          -1.1235   12.2877    1.8793 C.3     1  UNL1       -0.0587
     29 H          -0.6822   12.6798    2.7925 H       1  UNL1        0.0236
     30 H          -1.6659   13.1002    1.3968 H       1  UNL1        0.0236
     31 H          -0.3270   11.9675    1.2114 H       1  UNL1        0.0236
@<TRIPOS>BOND
     1    27    24    1
     2    25    24    1
     3    24    26    1
     4    24     6    1
     5    31    28    1
     6    30    28    1
     7    28     6    1
     8    28    29    1
     9     6     1    1
    10     6     7    1
    11     5     4    1
    12     1     4    1
    13     1     2    1
    14     4    20    1
    15     4    16    1
    16    21    20    1
    17     3     2    1
    18     9     8    1
    19    17    16    1
    20    20    23    1
    21    20    22    1
    22     2     8    1
    23     2    12    1
    24    16    18    1
    25    16    19    1
    26     8    11    1
    27     8    10    1
    28    13    12    1
    29    12    15    1
    30    12    14    1
