@<TRIPOS>MOLECULE
1
 43 45 0 0 0
SMALL
GASTEIGER

@<TRIPOS>ATOM
      1 P          -0.0899    4.7397    5.1820 P.3     1  UNL1       -0.0964
      2 C          -1.0963    5.6151    6.5019 C.3     1  UNL1       -0.0200
      3 H          -0.8306    5.1103    7.4396 H       1  UNL1        0.0349
      4 C          -2.5943    5.3450    6.1910 C.3     1  UNL1       -0.0463
      5 H          -2.7283    4.8130    5.2186 H       1  UNL1        0.0271
      6 H          -3.0543    4.7421    6.9821 H       1  UNL1        0.0271
      7 C          -3.2674    6.7166    6.1354 C.3     1  UNL1       -0.0525
      8 H          -4.3104    6.6758    6.4478 H       1  UNL1        0.0265
      9 H          -3.2282    7.1217    5.1228 H       1  UNL1        0.0265
     10 C          -2.4079    7.5698    7.0630 C.3     1  UNL1       -0.0525
     11 H          -2.6347    7.3316    8.1043 H       1  UNL1        0.0265
     12 H          -2.5610    8.6377    6.9130 H       1  UNL1        0.0265
     13 C          -0.9833    7.1332    6.7220 C.3     1  UNL1       -0.0463
     14 H          -0.2856    7.3804    7.5223 H       1  UNL1        0.0271
     15 H          -0.6587    7.6422    5.8155 H       1  UNL1        0.0271
     16 C           1.5798    4.4840    5.9799 C.3     1  UNL1       -0.0200
     17 H           2.1686    3.9900    5.1993 H       1  UNL1        0.0349
     18 C           2.3184    5.7491    6.4543 C.3     1  UNL1       -0.0463
     19 H           3.0036    6.1311    5.6986 H       1  UNL1        0.0271
     20 H           1.6100    6.5385    6.7057 H       1  UNL1        0.0271
     21 C           3.0474    5.3097    7.7221 C.3     1  UNL1       -0.0525
     22 H           3.9536    4.7601    7.4628 H       1  UNL1        0.0265
     23 H           3.3222    6.1513    8.3572 H       1  UNL1        0.0265
     24 C           2.0452    4.3699    8.3824 C.3     1  UNL1       -0.0525
     25 H           1.2476    4.9536    8.8473 H       1  UNL1        0.0265
     26 H           2.4962    3.7395    9.1473 H       1  UNL1        0.0265
     27 C           1.5019    3.5545    7.2092 C.3     1  UNL1       -0.0463
     28 H           0.4871    3.2039    7.3949 H       1  UNL1        0.0271
     29 H           2.1157    2.6674    7.0507 H       1  UNL1        0.0271
     30 C           0.3800    6.0544    3.9558 C.3     1  UNL1       -0.0200
     31 H           0.9650    6.8289    4.4625 H       1  UNL1        0.0349
     32 C           1.2237    5.4365    2.8358 C.3     1  UNL1       -0.0463
     33 H           0.7880    4.4753    2.5451 H       1  UNL1        0.0271
     34 H           2.2626    5.2818    3.1249 H       1  UNL1        0.0271
     35 C           1.0772    6.4404    1.6989 C.3     1  UNL1       -0.0525
     36 H           1.6928    7.3200    1.9006 H       1  UNL1        0.0265
     37 H           1.3720    6.0271    0.7363 H       1  UNL1        0.0265
     38 C          -0.4062    6.8059    1.7422 C.3     1  UNL1       -0.0525
     39 H          -0.9737    6.0940    1.1448 H       1  UNL1        0.0265
     40 H          -0.5919    7.8038    1.3463 H       1  UNL1        0.0265
     41 C          -0.8142    6.6914    3.2221 C.3     1  UNL1       -0.0463
     42 H          -1.7033    6.0568    3.3127 H       1  UNL1        0.0271
     43 H          -1.0562    7.6706    3.6363 H       1  UNL1        0.0271
@<TRIPOS>BOND
     1    37    35    1
     2    39    38    1
     3    40    38    1
     4    35    38    1
     5    35    36    1
     6    35    32    1
     7    38    41    1
     8    33    32    1
     9    32    34    1
    10    32    30    1
    11    41    42    1
    12    41    43    1
    13    41    30    1
    14    30    31    1
    15    30     1    1
    16     9     7    1
    17     1    16    1
    18     1     2    1
    19    17    16    1
    20     5     4    1
    21    19    18    1
    22    15    13    1
    23    16    18    1
    24    16    27    1
    25     7     4    1
    26     7     8    1
    27     7    10    1
    28     4     2    1
    29     4     6    1
    30    18    20    1
    31    18    21    1
    32     2    13    1
    33     2     3    1
    34    13    10    1
    35    13    14    1
    36    12    10    1
    37    29    27    1
    38    10    11    1
    39    27    28    1
    40    27    24    1
    41    22    21    1
    42    21    23    1
    43    21    24    1
    44    24    25    1
    45    24    26    1
