@<TRIPOS>MOLECULE
1
 34 36 0 0 0
SMALL
GASTEIGER

@<TRIPOS>ATOM
      1 P           8.0619   11.3133   14.1586 P.3     1  UNL1       -0.0131
      2 C           7.9058   13.0262   13.5116 C.ar    1  UNL1       -0.0147
      3 C           6.6249   13.5704   13.4311 C.ar    1  UNL1       -0.0535
      4 H           5.7687   12.9517   13.6658 H       1  UNL1        0.0624
      5 C           6.4385   14.8824   13.0425 C.ar    1  UNL1       -0.0611
      6 H           5.4399   15.2920   12.9902 H       1  UNL1        0.0618
      7 C           7.5324   15.6715   12.7236 C.ar    1  UNL1       -0.0617
      8 H           7.3893   16.6996   12.4256 H       1  UNL1        0.0618
      9 C           8.8068   15.1358   12.7852 C.ar    1  UNL1       -0.0611
     10 H           9.6617   15.7450   12.5298 H       1  UNL1        0.0618
     11 C           8.9960   13.8220   13.1794 C.ar    1  UNL1       -0.0535
     12 H           9.9964   13.4163   13.2320 H       1  UNL1        0.0624
     13 C           7.2717   10.4049   12.7728 C.ar    1  UNL1       -0.0147
     14 C           7.0013   10.9735   11.5313 C.ar    1  UNL1       -0.0535
     15 H           7.2396   12.0108   11.3424 H       1  UNL1        0.0624
     16 C           6.4294   10.2107   10.5278 C.ar    1  UNL1       -0.0611
     17 H           6.2204   10.6621    9.5685 H       1  UNL1        0.0618
     18 C           6.1309    8.8758   10.7452 C.ar    1  UNL1       -0.0617
     19 H           5.6875    8.2859    9.9566 H       1  UNL1        0.0618
     20 C           6.4023    8.3026   11.9768 C.ar    1  UNL1       -0.0611
     21 H           6.1768    7.2619   12.1569 H       1  UNL1        0.0618
     22 C           6.9633    9.0646   12.9849 C.ar    1  UNL1       -0.0535
     23 H           7.1664    8.6283   13.9521 H       1  UNL1        0.0624
     24 C           9.8254   10.9914   13.7733 C.ar    1  UNL1       -0.0147
     25 C          10.2519   10.5406   12.5280 C.ar    1  UNL1       -0.0535
     26 H           9.5343   10.3452   11.7450 H       1  UNL1        0.0624
     27 C          11.5984   10.3284   12.2896 C.ar    1  UNL1       -0.0611
     28 H          11.9189    9.9724   11.3211 H       1  UNL1        0.0618
     29 C          12.5329   10.5654   13.2838 C.ar    1  UNL1       -0.0617
     30 H          13.5818   10.3912   13.0940 H       1  UNL1        0.0618
     31 C          12.1165   11.0205   14.5245 C.ar    1  UNL1       -0.0611
     32 H          12.8368   11.1991   15.3095 H       1  UNL1        0.0618
     33 C          10.7715   11.2314   14.7661 C.ar    1  UNL1       -0.0535
     34 H          10.4414   11.5592   15.7416 H       1  UNL1        0.0624
@<TRIPOS>BOND
     1    17    16    1
     2    19    18    1
     3    16    18   ar
     4    16    14   ar
     5    18    20   ar
     6    28    27    1
     7    15    14    1
     8    14    13   ar
     9    26    25    1
    10    20    21    1
    11    20    22   ar
    12    27    25   ar
    13    27    29   ar
    14     8     7    1
    15    25    24   ar
    16    10     9    1
    17     7     9   ar
    18     7     5   ar
    19    13    22   ar
    20    13     1    1
    21     9    11   ar
    22    22    23    1
    23     6     5    1
    24     5     3   ar
    25    30    29    1
    26    11    12    1
    27    11     2   ar
    28    29    31   ar
    29     3     2   ar
    30     3     4    1
    31     2     1    1
    32    24     1    1
    33    24    33   ar
    34    31    33   ar
    35    31    32    1
    36    33    34    1
