@<TRIPOS>MOLECULE
1
 34 36 0 0 0
SMALL
GASTEIGER

@<TRIPOS>ATOM
      1 P          16.6709   13.4604    2.8508 P.3     1  UNL1       -0.0131
      2 C          16.4576   14.4511    1.3182 C.ar    1  UNL1       -0.0147
      3 C          16.0064   15.7610    1.4563 C.ar    1  UNL1       -0.0535
      4 H          15.8346   16.1528    2.4490 H       1  UNL1        0.0624
      5 C          15.8002   16.5546    0.3424 C.ar    1  UNL1       -0.0611
      6 H          15.4504   17.5696    0.4632 H       1  UNL1        0.0618
      7 C          16.0479   16.0511   -0.9243 C.ar    1  UNL1       -0.0617
      8 H          15.8926   16.6706   -1.7953 H       1  UNL1        0.0618
      9 C          16.4984   14.7499   -1.0701 C.ar    1  UNL1       -0.0611
     10 H          16.6926   14.3516   -2.0557 H       1  UNL1        0.0618
     11 C          16.7000   13.9506    0.0420 C.ar    1  UNL1       -0.0535
     12 H          17.0472   12.9349   -0.0879 H       1  UNL1        0.0624
     13 C          15.0116   12.6758    2.9353 C.ar    1  UNL1       -0.0147
     14 C          14.2110   12.4996    1.8107 C.ar    1  UNL1       -0.0535
     15 H          14.5381   12.8645    0.8480 H       1  UNL1        0.0624
     16 C          12.9883   11.8613    1.9208 C.ar    1  UNL1       -0.0611
     17 H          12.3718   11.7332    1.0428 H       1  UNL1        0.0618
     18 C          12.5538   11.3877    3.1475 C.ar    1  UNL1       -0.0617
     19 H          11.5985   10.8903    3.2278 H       1  UNL1        0.0618
     20 C          13.3466   11.5586    4.2706 C.ar    1  UNL1       -0.0611
     21 H          13.0109   11.1936    5.2304 H       1  UNL1        0.0618
     22 C          14.5666   12.2005    4.1649 C.ar    1  UNL1       -0.0535
     23 H          15.1841   12.3601    5.0380 H       1  UNL1        0.0624
     24 C          17.6272   12.0453    2.1714 C.ar    1  UNL1       -0.0147
     25 C          17.1698   10.7325    2.2018 C.ar    1  UNL1       -0.0535
     26 H          16.1736   10.5152    2.5603 H       1  UNL1        0.0624
     27 C          17.9858    9.6978    1.7777 C.ar    1  UNL1       -0.0611
     28 H          17.6183    8.6821    1.8064 H       1  UNL1        0.0618
     29 C          19.2681    9.9573    1.3266 C.ar    1  UNL1       -0.0617
     30 H          19.9059    9.1466    1.0068 H       1  UNL1        0.0618
     31 C          19.7297   11.2632    1.2837 C.ar    1  UNL1       -0.0611
     32 H          20.7274   11.4750    0.9264 H       1  UNL1        0.0618
     33 C          18.9151   12.2973    1.7014 C.ar    1  UNL1       -0.0535
     34 H          19.2731   13.3169    1.6519 H       1  UNL1        0.0624
@<TRIPOS>BOND
     1    10     9    1
     2     8     7    1
     3     9     7   ar
     4     9    11   ar
     5     7     5   ar
     6    12    11    1
     7    11     2   ar
     8     5     6    1
     9     5     3   ar
    10    15    14    1
    11    32    31    1
    12    30    29    1
    13    17    16    1
    14    31    29   ar
    15    31    33   ar
    16     2     3   ar
    17     2     1    1
    18    29    27   ar
    19     3     4    1
    20    34    33    1
    21    33    24   ar
    22    27    28    1
    23    27    25   ar
    24    14    16   ar
    25    14    13   ar
    26    16    18   ar
    27    24    25   ar
    28    24     1    1
    29    25    26    1
    30     1    13    1
    31    13    22   ar
    32    18    19    1
    33    18    20   ar
    34    22    20   ar
    35    22    23    1
    36    20    21    1
