@<TRIPOS>MOLECULE
1
 35 34 0 0 0
SMALL
GASTEIGER

@<TRIPOS>ATOM
      1 P          -0.1735   11.8199    3.8014 P.3     1  UNL1        0.0000
      2 P           0.0381   10.6315    2.0049 P.3     1  UNL1        0.0000
      3 SI          1.4680   13.3777    3.9948 Si      1  UNL1        0.0000
      4 C           0.8464   14.6412    5.2898 C.3     1  UNL1        0.0000
      5 H          -0.1624   14.9758    5.0692 H       1  UNL1        0.0000
      6 H           1.4905   15.5149    5.2835 H       1  UNL1        0.0000
      7 H           0.8539   14.2380    6.2958 H       1  UNL1        0.0000
      8 C           1.6311   14.3827    2.3648 C.3     1  UNL1        0.0000
      9 H           0.6610   14.5637    1.9129 H       1  UNL1        0.0000
     10 H           2.2543   13.8942    1.6227 H       1  UNL1        0.0000
     11 H           2.0805   15.3477    2.5775 H       1  UNL1        0.0000
     12 C           3.1972   12.7591    4.5401 C.3     1  UNL1        0.0000
     13 H           3.7533   12.3181    3.7190 H       1  UNL1        0.0000
     14 H           3.1265   12.0109    5.3245 H       1  UNL1        0.0000
     15 H           3.7821   13.5892    4.9247 H       1  UNL1        0.0000
     16 C          -0.6260   11.7943    0.6628 C.3     1  UNL1        0.0000
     17 H           0.1900   12.4379    0.3141 H       1  UNL1        0.0000
     18 C          -1.7680   12.6675    1.1651 C.3     1  UNL1        0.0000
     19 H          -1.4291   13.3429    1.9477 H       1  UNL1        0.0000
     20 H          -2.5644   12.0492    1.5765 H       1  UNL1        0.0000
     21 H          -2.1756   13.2562    0.3437 H       1  UNL1        0.0000
     22 C          -1.1334   10.9280   -0.4916 C.3     1  UNL1        0.0000
     23 H          -0.3712   10.2408   -0.8486 H       1  UNL1        0.0000
     24 H          -1.4502   11.5535   -1.3253 H       1  UNL1        0.0000
     25 H          -1.9877   10.3392   -0.1618 H       1  UNL1        0.0000
     26 C           1.8852   10.6985    1.5903 C.3     1  UNL1        0.0000
     27 H           2.2188   11.7299    1.7411 H       1  UNL1        0.0000
     28 C           2.6338    9.7810    2.5520 C.3     1  UNL1        0.0000
     29 H           2.3441    9.9717    3.5867 H       1  UNL1        0.0000
     30 H           3.7088    9.9324    2.4641 H       1  UNL1        0.0000
     31 H           2.4265    8.7378    2.3188 H       1  UNL1        0.0000
     32 C           2.1865   10.2796    0.1550 C.3     1  UNL1        0.0000
     33 H           1.7809   10.9833   -0.5669 H       1  UNL1        0.0000
     34 H           1.7790    9.2912   -0.0498 H       1  UNL1        0.0000
     35 H           3.2658   10.2355    0.0102 H       1  UNL1        0.0000
@<TRIPOS>BOND
     1    24    22    1
     2    23    22    1
     3    33    32    1
     4    22    25    1
     5    22    16    1
     6    34    32    1
     7    35    32    1
     8    32    26    1
     9    17    16    1
    10    21    18    1
    11    16    18    1
    12    16     2    1
    13    18    20    1
    14    18    19    1
    15    26    27    1
    16    26     2    1
    17    26    28    1
    18    10     8    1
    19     9     8    1
    20     2     1    1
    21    31    28    1
    22     8    11    1
    23     8     3    1
    24    30    28    1
    25    28    29    1
    26    13    12    1
    27     1     3    1
    28     3    12    1
    29     3     4    1
    30    12    15    1
    31    12    14    1
    32     5     4    1
    33     6     4    1
    34     4     7    1
