@<TRIPOS>MOLECULE
1
 35 34 0 0 0
SMALL
GASTEIGER

@<TRIPOS>ATOM
      1 P          -1.9619   11.7839   13.3865 P.3     1  UNL1        0.0000
      2 P          -2.2093   10.6465   15.2122 P.3     1  UNL1        0.0000
      3 SI         -3.5509   13.3850   13.1885 Si      1  UNL1        0.0000
      4 C          -3.8468   14.3901   14.8018 C.3     1  UNL1        0.0000
      5 H          -4.3746   15.3080   14.5618 H       1  UNL1        0.0000
      6 H          -2.9094   14.6641   15.2751 H       1  UNL1        0.0000
      7 H          -4.4430   13.8581   15.5358 H       1  UNL1        0.0000
      8 C          -5.2387   12.7780   12.5075 C.3     1  UNL1        0.0000
      9 H          -5.1068   12.0154   11.7427 H       1  UNL1        0.0000
     10 H          -5.7862   13.6043   12.0641 H       1  UNL1        0.0000
     11 H          -5.8636   12.3517   13.2862 H       1  UNL1        0.0000
     12 C          -2.8557   14.6794   11.9554 C.3     1  UNL1        0.0000
     13 H          -1.8370   14.9623   12.2027 H       1  UNL1        0.0000
     14 H          -3.4619   15.5790   11.9914 H       1  UNL1        0.0000
     15 H          -2.8666   14.3218   10.9317 H       1  UNL1        0.0000
     16 C          -4.0752   10.6846   15.5486 C.3     1  UNL1        0.0000
     17 H          -4.4201   11.7106   15.3849 H       1  UNL1        0.0000
     18 C          -4.4299   10.2579   16.9694 C.3     1  UNL1        0.0000
     19 H          -4.0068    9.2801   17.1931 H       1  UNL1        0.0000
     20 H          -5.5131   10.1876   17.0681 H       1  UNL1        0.0000
     21 H          -4.0724   10.9716   17.7067 H       1  UNL1        0.0000
     22 C          -4.7669    9.7610   14.5510 C.3     1  UNL1        0.0000
     23 H          -5.8464    9.9032   14.5850 H       1  UNL1        0.0000
     24 H          -4.5628    8.7185   14.7932 H       1  UNL1        0.0000
     25 H          -4.4227    9.9606   13.5321 H       1  UNL1        0.0000
     26 C          -1.6335   11.8620   16.5523 C.3     1  UNL1        0.0000
     27 H          -2.4791   12.4930   16.8487 H       1  UNL1        0.0000
     28 C          -1.1522   11.0434   17.7513 C.3     1  UNL1        0.0000
     29 H          -0.8788   11.7012   18.5756 H       1  UNL1        0.0000
     30 H          -0.2750   10.4622   17.4719 H       1  UNL1        0.0000
     31 H          -1.9138   10.3522   18.1020 H       1  UNL1        0.0000
     32 C          -0.4945   12.7500   16.0688 C.3     1  UNL1        0.0000
     33 H           0.3357   12.1397   15.7157 H       1  UNL1        0.0000
     34 H          -0.1394   13.3797   16.8842 H       1  UNL1        0.0000
     35 H          -0.8178   13.3860   15.2474 H       1  UNL1        0.0000
@<TRIPOS>BOND
     1    15    12    1
     2     9     8    1
     3    12    14    1
     4    12    13    1
     5    12     3    1
     6    10     8    1
     7     8     3    1
     8     8    11    1
     9     3     1    1
    10     3     4    1
    11     1     2    1
    12    25    22    1
    13    22    23    1
    14    22    24    1
    15    22    16    1
    16     5     4    1
    17     4     6    1
    18     4     7    1
    19     2    16    1
    20     2    26    1
    21    35    32    1
    22    17    16    1
    23    16    18    1
    24    33    32    1
    25    32    26    1
    26    32    34    1
    27    26    27    1
    28    26    28    1
    29    18    20    1
    30    18    19    1
    31    18    21    1
    32    30    28    1
    33    28    31    1
    34    28    29    1
