@<TRIPOS>MOLECULE
1
 13 12 0 0 0
SMALL
GASTEIGER

@<TRIPOS>ATOM
      1 P           5.4072   10.7977    5.4817 P.3     1  UNL1       -0.1154
      2 C           4.6561    9.7654    4.1620 C.3     1  UNL1       -0.0447
      3 H           5.3578    9.6319    3.3375 H       1  UNL1        0.0277
      4 H           3.7513   10.2503    3.7943 H       1  UNL1        0.0277
      5 H           4.3885    8.7907    4.5701 H       1  UNL1        0.0277
      6 C           6.9451    9.8503    5.7818 C.3     1  UNL1       -0.0447
      7 H           7.4756    9.6839    4.8436 H       1  UNL1        0.0277
      8 H           6.6828    8.8911    6.2290 H       1  UNL1        0.0277
      9 H           7.5832   10.3942    6.4746 H       1  UNL1        0.0277
     10 C           6.0101   12.1947    4.4604 C.3     1  UNL1       -0.0447
     11 H           6.6279   11.8232    3.6420 H       1  UNL1        0.0277
     12 H           6.5865   12.8834    5.0738 H       1  UNL1        0.0277
     13 H           5.1496   12.7275    4.0550 H       1  UNL1        0.0277
@<TRIPOS>BOND
     1     3     2    1
     2    11    10    1
     3     4     2    1
     4    13    10    1
     5     2     5    1
     6     2     1    1
     7    10    12    1
     8    10     1    1
     9     7     6    1
    10     1     6    1
    11     6     8    1
    12     6     9    1
