@<TRIPOS>MOLECULE
1
 13 12 0 0 0
SMALL
GASTEIGER

@<TRIPOS>ATOM
      1 P           1.9743    1.8500   -1.9785 P.3     1  UNL1       -0.1154
      2 C           1.6167    0.0492   -1.9330 C.3     1  UNL1       -0.0447
      3 H           1.3709   -0.3132   -2.9322 H       1  UNL1        0.0277
      4 H           0.7768   -0.1383   -1.2631 H       1  UNL1        0.0277
      5 H           2.4884   -0.4886   -1.5595 H       1  UNL1        0.0277
      6 C           3.2786    1.8743   -3.2634 C.3     1  UNL1       -0.0447
      7 H           4.1663    1.3766   -2.8716 H       1  UNL1        0.0277
      8 H           3.5364    2.9017   -3.5107 H       1  UNL1        0.0277
      9 H           2.9342    1.3551   -4.1586 H       1  UNL1        0.0277
     10 C           0.5016    2.4198   -2.9079 C.3     1  UNL1       -0.0447
     11 H           0.5757    3.4852   -3.1138 H       1  UNL1        0.0277
     12 H          -0.3859    2.2454   -2.2987 H       1  UNL1        0.0277
     13 H           0.4133    1.8686   -3.8449 H       1  UNL1        0.0277
@<TRIPOS>BOND
     1     9     6    1
     2    13    10    1
     3     8     6    1
     4     6     7    1
     5     6     1    1
     6    11    10    1
     7     3     2    1
     8    10    12    1
     9    10     1    1
    10     1     2    1
    11     2     5    1
    12     2     4    1
