@<TRIPOS>MOLECULE
1
 13 12 0 0 0
SMALL
GASTEIGER

@<TRIPOS>ATOM
      1 P          10.3947    4.3049   11.3160 P.3     1  UNL1       -0.1154
      2 C          11.6037    5.1262   12.4436 C.3     1  UNL1       -0.0447
      3 H          11.5999    4.6384   13.4159 H       1  UNL1        0.0277
      4 H          11.3287    6.1708   12.5751 H       1  UNL1        0.0277
      5 H          12.6026    5.0659   12.0127 H       1  UNL1        0.0277
      6 C          11.2305    2.6936   11.0602 C.3     1  UNL1       -0.0447
      7 H          10.7140    2.1802   10.2516 H       1  UNL1        0.0277
      8 H          11.1649    2.0900   11.9618 H       1  UNL1        0.0277
      9 H          12.2776    2.8515   10.8021 H       1  UNL1        0.0277
     10 C          10.8139    5.1334    9.7376 C.3     1  UNL1       -0.0447
     11 H          11.8814    5.0556    9.5319 H       1  UNL1        0.0277
     12 H          10.5174    6.1795    9.7909 H       1  UNL1        0.0277
     13 H          10.2334    4.6560    8.9506 H       1  UNL1        0.0277
@<TRIPOS>BOND
     1    13    10    1
     2    11    10    1
     3    10    12    1
     4    10     1    1
     5     7     6    1
     6     9     6    1
     7     6     1    1
     8     6     8    1
     9     1     2    1
    10     5     2    1
    11     2     4    1
    12     2     3    1
