@<TRIPOS>MOLECULE
1
 13 12 0 0 0
SMALL
GASTEIGER

@<TRIPOS>ATOM
      1 P           5.1054    4.1722   11.5137 P.3     1  UNL1       -0.1154
      2 C           4.2173    2.7968   12.3369 C.3     1  UNL1       -0.0447
      3 H           4.3569    2.8663   13.4134 H       1  UNL1        0.0277
      4 H           4.6317    1.8485   12.0006 H       1  UNL1        0.0277
      5 H           3.1536    2.8440   12.1019 H       1  UNL1        0.0277
      6 C           4.3888    4.1133    9.8262 C.3     1  UNL1       -0.0447
      7 H           3.3040    4.0179    9.8638 H       1  UNL1        0.0277
      8 H           4.8208    3.2718    9.2872 H       1  UNL1        0.0277
      9 H           4.6623    5.0324    9.3111 H       1  UNL1        0.0277
     10 C           4.2022    5.6249   12.1878 C.3     1  UNL1       -0.0447
     11 H           4.6241    6.5295   11.7499 H       1  UNL1        0.0277
     12 H           4.3144    5.6679   13.2696 H       1  UNL1        0.0277
     13 H           3.1439    5.5524   11.9368 H       1  UNL1        0.0277
@<TRIPOS>BOND
     1     8     6    1
     2     9     6    1
     3     6     7    1
     4     6     1    1
     5     1    10    1
     6     1     2    1
     7    11    10    1
     8    13    10    1
     9     4     2    1
    10     5     2    1
    11    10    12    1
    12     2     3    1
