@<TRIPOS>MOLECULE
1
 34 36 0 0 0
SMALL
GASTEIGER

@<TRIPOS>ATOM
      1 P           6.8091   15.0191    8.5573 P.3     1  UNL1       -0.0131
      2 C           8.5589   14.8515    9.0783 C.ar    1  UNL1       -0.0147
      3 C           9.1321   13.7092    9.6223 C.ar    1  UNL1       -0.0535
      4 H           8.5473   12.8094    9.7501 H       1  UNL1        0.0624
      5 C          10.4619   13.7180   10.0075 C.ar    1  UNL1       -0.0611
      6 H          10.9016   12.8238   10.4261 H       1  UNL1        0.0618
      7 C          11.2263   14.8629    9.8649 C.ar    1  UNL1       -0.0617
      8 H          12.2639   14.8614   10.1650 H       1  UNL1        0.0618
      9 C          10.6536   16.0123    9.3435 C.ar    1  UNL1       -0.0611
     10 H          11.2423   16.9122    9.2407 H       1  UNL1        0.0618
     11 C           9.3284   16.0061    8.9543 C.ar    1  UNL1       -0.0535
     12 H           8.8672   16.8981    8.5514 H       1  UNL1        0.0624
     13 C           6.2816   15.8558   10.0983 C.ar    1  UNL1       -0.0147
     14 C           6.3283   15.2134   11.3323 C.ar    1  UNL1       -0.0535
     15 H           6.6420   14.1801   11.3901 H       1  UNL1        0.0624
     16 C           5.9764   15.8970   12.4803 C.ar    1  UNL1       -0.0611
     17 H           6.0064   15.3934   13.4361 H       1  UNL1        0.0618
     18 C           5.5947   17.2283   12.4103 C.ar    1  UNL1       -0.0617
     19 H           5.3225   17.7583   13.3114 H       1  UNL1        0.0618
     20 C           5.5729   17.8778   11.1885 C.ar    1  UNL1       -0.0611
     21 H           5.2864   18.9175   11.1305 H       1  UNL1        0.0618
     22 C           5.9152   17.1935   10.0353 C.ar    1  UNL1       -0.0535
     23 H           5.9016   17.6905    9.0760 H       1  UNL1        0.0624
     24 C           6.1661   13.3273    8.7577 C.ar    1  UNL1       -0.0147
     25 C           4.9841   13.0524    9.4363 C.ar    1  UNL1       -0.0535
     26 H           4.4750   13.8440    9.9687 H       1  UNL1        0.0624
     27 C           4.4623   11.7713    9.4399 C.ar    1  UNL1       -0.0611
     28 H           3.5446   11.5677    9.9728 H       1  UNL1        0.0618
     29 C           5.1078   10.7535    8.7592 C.ar    1  UNL1       -0.0617
     30 H           4.6997    9.7536    8.7651 H       1  UNL1        0.0618
     31 C           6.2706   11.0251    8.0547 C.ar    1  UNL1       -0.0611
     32 H           6.7677   10.2353    7.5087 H       1  UNL1        0.0618
     33 C           6.7905   12.3041    8.0438 C.ar    1  UNL1       -0.0535
     34 H           7.6864   12.5242    7.4762 H       1  UNL1        0.0624
@<TRIPOS>BOND
     1    34    33    1
     2    32    31    1
     3    33    31   ar
     4    33    24   ar
     5    31    29   ar
     6    12    11    1
     7     1    24    1
     8     1     2    1
     9     1    13    1
    10    24    25   ar
    11    29    30    1
    12    29    27   ar
    13    11     2   ar
    14    11     9   ar
    15    23    22    1
    16     2     3   ar
    17    10     9    1
    18     9     7   ar
    19    25    27   ar
    20    25    26    1
    21    27    28    1
    22     3     4    1
    23     3     5   ar
    24     7     5   ar
    25     7     8    1
    26     5     6    1
    27    22    13   ar
    28    22    20   ar
    29    13    14   ar
    30    21    20    1
    31    20    18   ar
    32    14    15    1
    33    14    16   ar
    34    18    16   ar
    35    18    19    1
    36    16    17    1
