@<TRIPOS>MOLECULE
1
 72 73 0 0 0
SMALL
GASTEIGER

@<TRIPOS>ATOM
      1 P           1.6431    3.6543   13.6199 P.3     1  UNL1        0.0000
      2 P          -0.2375    3.1164   14.6218 P.3     1  UNL1        0.0000
      3 P          -0.2153    4.4768   12.9002 P.3     1  UNL1        0.0000
      4 P           0.0142    5.9778   15.5229 P.3     1  UNL1        0.0000
      5 SI         -0.7846    3.7776   17.6431 Si      1  UNL1        0.0000
      6 SI          2.3302    6.5091   17.4820 Si      1  UNL1        0.0000
      7 SI         -0.0160    8.7306   16.9886 Si      1  UNL1        0.0000
      8 SI         -2.1432    6.6212   13.4000 Si      1  UNL1        0.0000
      9 SI          1.0387    7.2313   12.7566 Si      1  UNL1        0.0000
     10 C          -0.1934    4.3415   15.9421 C.3     1  UNL1        0.0000
     11 C          -0.2794    6.1701   13.7043 C.3     1  UNL1        0.0000
     12 C           0.8324    7.1206   16.5016 C.3     1  UNL1        0.0000
     13 C          -1.4397    5.2456   18.6619 C.3     1  UNL1        0.0000
     14 C          -2.2384    2.5681   17.3522 C.3     1  UNL1        0.0000
     15 C           0.5639    2.8019   18.5859 C.3     1  UNL1        0.0000
     16 C           2.1019    6.1485   19.3501 C.3     1  UNL1        0.0000
     17 C           3.6393    7.9064   17.3677 C.3     1  UNL1        0.0000
     18 C           3.1288    4.9532   16.7150 C.3     1  UNL1        0.0000
     19 C          -1.9164    8.5011   17.0353 C.3     1  UNL1        0.0000
     20 C           0.4588   10.2354   15.8944 C.3     1  UNL1        0.0000
     21 C           0.4279    9.2628   18.7712 C.3     1  UNL1        0.0000
     22 C          -2.5806    6.2853   11.5707 C.3     1  UNL1        0.0000
     23 C          -3.2032    5.4678   14.4926 C.3     1  UNL1        0.0000
     24 C          -2.5825    8.4466   13.7370 C.3     1  UNL1        0.0000
     25 C           1.3817    6.4307   11.0558 C.3     1  UNL1        0.0000
     26 C           2.6723    7.2848   13.7264 C.3     1  UNL1        0.0000
     27 C           0.4320    8.9932   12.3629 C.3     1  UNL1        0.0000
     28 H          -0.8117    6.1207   18.5396 H       1  UNL1        0.0000
     29 H          -2.4447    5.5152   18.3528 H       1  UNL1        0.0000
     30 H          -1.4787    4.9999   19.7180 H       1  UNL1        0.0000
     31 H          -3.0826    3.0636   16.8831 H       1  UNL1        0.0000
     32 H          -1.9388    1.7523   16.7008 H       1  UNL1        0.0000
     33 H          -2.5847    2.1367   18.2860 H       1  UNL1        0.0000
     34 H           1.5372    3.2724   18.5094 H       1  UNL1        0.0000
     35 H           0.3131    2.7239   19.6392 H       1  UNL1        0.0000
     36 H           0.6528    1.7912   18.1990 H       1  UNL1        0.0000
     37 H           1.2826    5.4670   19.5459 H       1  UNL1        0.0000
     38 H           3.0045    5.7076   19.7647 H       1  UNL1        0.0000
     39 H           1.9101    7.0627   19.8997 H       1  UNL1        0.0000
     40 H           3.1752    8.8858   17.3887 H       1  UNL1        0.0000
     41 H           4.3305    7.8517   18.2024 H       1  UNL1        0.0000
     42 H           4.2244    7.8419   16.4564 H       1  UNL1        0.0000
     43 H           2.3794    4.3545   16.2057 H       1  UNL1        0.0000
     44 H           3.8890    5.2143   15.9859 H       1  UNL1        0.0000
     45 H           3.5991    4.3271   17.4670 H       1  UNL1        0.0000
     46 H          -2.2513    8.2840   18.0448 H       1  UNL1        0.0000
     47 H          -2.4503    9.3853   16.7025 H       1  UNL1        0.0000
     48 H          -2.2180    7.6692   16.4056 H       1  UNL1        0.0000
     49 H           1.3304   10.0259   15.2833 H       1  UNL1        0.0000
     50 H          -0.3464   10.5384   15.2319 H       1  UNL1        0.0000
     51 H           0.6973   11.0931   16.5159 H       1  UNL1        0.0000
     52 H           1.4938    9.4121   18.8976 H       1  UNL1        0.0000
     53 H          -0.0650   10.1986   19.0192 H       1  UNL1        0.0000
     54 H           0.1088    8.5259   19.5003 H       1  UNL1        0.0000
     55 H          -3.6006    6.5946   11.3653 H       1  UNL1        0.0000
     56 H          -1.9297    6.8360   10.8992 H       1  UNL1        0.0000
     57 H          -2.4979    5.2323   11.3205 H       1  UNL1        0.0000
     58 H          -4.2622    5.5824   14.2823 H       1  UNL1        0.0000
     59 H          -2.9397    4.4275   14.3146 H       1  UNL1        0.0000
     60 H          -3.0491    5.6625   15.5510 H       1  UNL1        0.0000
     61 H          -3.5436    8.5126   14.2350 H       1  UNL1        0.0000
     62 H          -1.8521    8.9482   14.3569 H       1  UNL1        0.0000
     63 H          -2.6652    8.9936   12.8050 H       1  UNL1        0.0000
     64 H           1.9732    7.0919   10.4298 H       1  UNL1        0.0000
     65 H           1.9336    5.5017   11.1673 H       1  UNL1        0.0000
     66 H           0.4660    6.2010   10.5191 H       1  UNL1        0.0000
     67 H           3.4772    7.6652   13.1050 H       1  UNL1        0.0000
     68 H           2.5945    7.9107   14.6079 H       1  UNL1        0.0000
     69 H           2.9453    6.2862   14.0563 H       1  UNL1        0.0000
     70 H           1.2326    9.5341   11.8705 H       1  UNL1        0.0000
     71 H          -0.4189    8.9869   11.6918 H       1  UNL1        0.0000
     72 H           0.1583    9.5494   13.2476 H       1  UNL1        0.0000
@<TRIPOS>BOND
     1    64    25    1
     2    66    25    1
     3    56    22    1
     4    25    65    1
     5    25     9    1
     6    57    22    1
     7    55    22    1
     8    22     8    1
     9    71    27    1
    10    70    27    1
    11    27     9    1
    12    27    72    1
    13     9    11    1
    14     9    26    1
    15    63    24    1
    16     3     1    1
    17     3    11    1
    18     3     2    1
    19    67    26    1
    20     8    11    1
    21     8    24    1
    22     8    23    1
    23     1     2    1
    24    11     4    1
    25    26    69    1
    26    26    68    1
    27    24    61    1
    28    24    62    1
    29    58    23    1
    30    59    23    1
    31    23    60    1
    32     2    10    1
    33    50    20    1
    34    49    20    1
    35     4    10    1
    36     4    12    1
    37    20    51    1
    38    20     7    1
    39    10     5    1
    40    44    18    1
    41    43    18    1
    42    48    19    1
    43    42    17    1
    44    12     7    1
    45    12     6    1
    46    32    14    1
    47    47    19    1
    48    18    45    1
    49    18     6    1
    50    31    14    1
    51     7    19    1
    52     7    21    1
    53    19    46    1
    54    14     5    1
    55    14    33    1
    56    17    40    1
    57    17     6    1
    58    17    41    1
    59     6    16    1
    60     5    15    1
    61     5    13    1
    62    36    15    1
    63    29    13    1
    64    34    15    1
    65    28    13    1
    66    15    35    1
    67    13    30    1
    68    21    52    1
    69    21    53    1
    70    21    54    1
    71    16    37    1
    72    16    38    1
    73    16    39    1
