@<TRIPOS>MOLECULE
2
 27 26 0 0 0
SMALL
GASTEIGER

@<TRIPOS>ATOM
      1 SI          5.7754    1.7821    1.7385 Si      1  UNL1        0.0000
      2 P           4.6955   -0.0000    2.5600 P.3     1  UNL1        0.0000
      3 C           7.4855    1.8898    2.5878 C.3     1  UNL1        0.0000
      4 C           4.7266    3.2784    2.3107 C.3     1  UNL1        0.0000
      5 C           6.0366    1.8840   -0.1557 C.3     1  UNL1        0.0000
      6 H           7.8893    2.8949    2.5218 H       1  UNL1        0.0000
      7 H           7.4159    1.6241    3.6373 H       1  UNL1        0.0000
      8 H           8.1984    1.2168    2.1244 H       1  UNL1        0.0000
      9 H           4.9815    4.1833    1.7684 H       1  UNL1        0.0000
     10 H           3.6708    3.0768    2.1510 H       1  UNL1        0.0000
     11 H           4.8692    3.4739    3.3688 H       1  UNL1        0.0000
     12 H           6.3533    2.8803   -0.4496 H       1  UNL1        0.0000
     13 H           6.7981    1.1857   -0.4873 H       1  UNL1        0.0000
     14 H           5.1226    1.6550   -0.6934 H       1  UNL1        0.0000
     15 SI          5.7754   -1.7821    1.7386 Si      1  UNL1        0.0000
     16 C           7.4854   -1.8899    2.5882 C.3     1  UNL1        0.0000
     17 C           4.7264   -3.2784    2.3107 C.3     1  UNL1        0.0000
     18 C           6.0369   -1.8840   -0.1556 C.3     1  UNL1        0.0000
     19 H           7.8891   -2.8950    2.5221 H       1  UNL1        0.0000
     20 H           7.4155   -1.6244    3.6377 H       1  UNL1        0.0000
     21 H           8.1983   -1.2169    2.1250 H       1  UNL1        0.0000
     22 H           4.9813   -4.1832    1.7684 H       1  UNL1        0.0000
     23 H           3.6707   -3.0767    2.1510 H       1  UNL1        0.0000
     24 H           4.8690   -3.4739    3.3688 H       1  UNL1        0.0000
     25 H           6.3538   -2.8802   -0.4494 H       1  UNL1        0.0000
     26 H           6.7984   -1.1855   -0.4870 H       1  UNL1        0.0000
     27 H           5.1230   -1.6550   -0.6934 H       1  UNL1        0.0000
@<TRIPOS>BOND
     1    27    18    1
     2    14     5    1
     3    13     5    1
     4    26    18    1
     5    12     5    1
     6    25    18    1
     7     5     1    1
     8    18    15    1
     9     1     4    1
    10     1     2    1
    11     1     3    1
    12    15    17    1
    13    15     2    1
    14    15    16    1
    15     9     4    1
    16    22    17    1
    17     8     3    1
    18    21    16    1
    19    10     4    1
    20    23    17    1
    21     4    11    1
    22    17    24    1
    23     6     3    1
    24    19    16    1
    25     3     7    1
    26    16    20    1
