@<TRIPOS>MOLECULE
1
 34 36 0 0 0
SMALL
GASTEIGER

@<TRIPOS>ATOM
      1 P           6.4294    7.2530    3.6728 P.3     1  UNL1       -0.0131
      2 C           5.9151    6.1791    5.0544 C.ar    1  UNL1       -0.0147
      3 C           5.9536    6.6542    6.3580 C.ar    1  UNL1       -0.0535
      4 H           6.3197    7.6530    6.5451 H       1  UNL1        0.0624
      5 C           5.5509    5.8440    7.4051 C.ar    1  UNL1       -0.0611
      6 H           5.5880    6.2154    8.4185 H       1  UNL1        0.0618
      7 C           5.1096    4.5558    7.1555 C.ar    1  UNL1       -0.0617
      8 H           4.8019    3.9205    7.9731 H       1  UNL1        0.0618
      9 C           5.0687    4.0779    5.8553 C.ar    1  UNL1       -0.0611
     10 H           4.7252    3.0727    5.6597 H       1  UNL1        0.0618
     11 C           5.4682    4.8847    4.8063 C.ar    1  UNL1       -0.0535
     12 H           5.4353    4.5138    3.7911 H       1  UNL1        0.0624
     13 C           7.2537    6.0200    2.6117 C.ar    1  UNL1       -0.0147
     14 C           8.4934    5.5574    3.0496 C.ar    1  UNL1       -0.0535
     15 H           8.9039    5.9463    3.9713 H       1  UNL1        0.0624
     16 C           9.1835    4.6154    2.3111 C.ar    1  UNL1       -0.0611
     17 H          10.1449    4.2638    2.6550 H       1  UNL1        0.0618
     18 C           8.6469    4.1284    1.1298 C.ar    1  UNL1       -0.0617
     19 H           9.1890    3.3974    0.5481 H       1  UNL1        0.0618
     20 C           7.4134    4.5816    0.6957 C.ar    1  UNL1       -0.0611
     21 H           6.9900    4.2018   -0.2228 H       1  UNL1        0.0618
     22 C           6.7149    5.5240    1.4313 C.ar    1  UNL1       -0.0535
     23 H           5.7529    5.8680    1.0810 H       1  UNL1        0.0624
     24 C           4.8629    7.5747    2.8050 C.ar    1  UNL1       -0.0147
     25 C           3.6206    7.3291    3.3770 C.ar    1  UNL1       -0.0535
     26 H           3.5560    6.8804    4.3585 H       1  UNL1        0.0624
     27 C           2.4667    7.6599    2.6866 C.ar    1  UNL1       -0.0611
     28 H           1.5018    7.4651    3.1322 H       1  UNL1        0.0618
     29 C           2.5457    8.2413    1.4325 C.ar    1  UNL1       -0.0617
     30 H           1.6422    8.4973    0.8984 H       1  UNL1        0.0618
     31 C           3.7844    8.5044    0.8668 C.ar    1  UNL1       -0.0611
     32 H           3.8466    8.9686   -0.1068 H       1  UNL1        0.0618
     33 C           4.9407    8.1818    1.5513 C.ar    1  UNL1       -0.0535
     34 H           5.9139    8.4033    1.1317 H       1  UNL1        0.0624
@<TRIPOS>BOND
     1    21    20    1
     2    32    31    1
     3    19    18    1
     4    20    18   ar
     5    20    22   ar
     6    31    29   ar
     7    31    33   ar
     8    30    29    1
     9    23    22    1
    10    18    16   ar
    11    34    33    1
    12    22    13   ar
    13    29    27   ar
    14    33    24   ar
    15    16    17    1
    16    16    14   ar
    17    13    14   ar
    18    13     1    1
    19    27    28    1
    20    27    25   ar
    21    24    25   ar
    22    24     1    1
    23    14    15    1
    24    25    26    1
    25     1     2    1
    26    12    11    1
    27    11     2   ar
    28    11     9   ar
    29     2     3   ar
    30    10     9    1
    31     9     7   ar
    32     3     4    1
    33     3     5   ar
    34     7     5   ar
    35     7     8    1
    36     5     6    1
