@<TRIPOS>MOLECULE
1
 34 36 0 0 0
SMALL
GASTEIGER

@<TRIPOS>ATOM
      1 P           9.8261    6.9734    7.2463 P.3     1  UNL1       -0.0131
      2 C           8.9543    5.4086    7.5686 C.ar    1  UNL1       -0.0147
      3 C           8.1164    4.9522    6.5549 C.ar    1  UNL1       -0.0535
      4 C           7.3975    3.7854    6.7227 C.ar    1  UNL1       -0.0611
      5 C           7.5087    3.0691    7.9046 C.ar    1  UNL1       -0.0617
      6 C           8.3367    3.5239    8.9162 C.ar    1  UNL1       -0.0611
      7 C           9.0600    4.6933    8.7543 C.ar    1  UNL1       -0.0535
      8 C           8.5189    8.1474    7.7304 C.ar    1  UNL1       -0.0147
      9 C           8.1761    9.1916    6.8811 C.ar    1  UNL1       -0.0535
     10 C           7.1655   10.0692    7.2366 C.ar    1  UNL1       -0.0611
     11 C           6.4948    9.9067    8.4371 C.ar    1  UNL1       -0.0617
     12 C           6.8333    8.8630    9.2855 C.ar    1  UNL1       -0.0611
     13 C           7.8391    7.9829    8.9346 C.ar    1  UNL1       -0.0535
     14 C          11.0382    7.0922    8.5922 C.ar    1  UNL1       -0.0147
     15 C          11.1102    8.1845    9.4492 C.ar    1  UNL1       -0.0535
     16 C          12.1275    8.2567   10.3850 C.ar    1  UNL1       -0.0611
     17 C          13.0790    7.2534   10.4612 C.ar    1  UNL1       -0.0617
     18 C          13.0213    6.1727    9.5945 C.ar    1  UNL1       -0.0611
     19 C          12.0096    6.0923    8.6577 C.ar    1  UNL1       -0.0535
     20 H           8.0554    5.5158    5.6292 H       1  UNL1        0.0624
     21 H           6.7564    3.4269    5.9307 H       1  UNL1        0.0618
     22 H           6.9543    2.1511    8.0338 H       1  UNL1        0.0618
     23 H           8.4262    2.9634    9.8357 H       1  UNL1        0.0618
     24 H           9.7154    5.0378    9.5430 H       1  UNL1        0.0624
     25 H           8.7121    9.3102    5.9484 H       1  UNL1        0.0624
     26 H           6.9008   10.8799    6.5735 H       1  UNL1        0.0618
     27 H           5.7054   10.5902    8.7136 H       1  UNL1        0.0618
     28 H           6.3080    8.7351   10.2208 H       1  UNL1        0.0618
     29 H           8.1020    7.1643    9.5908 H       1  UNL1        0.0624
     30 H          10.3739    8.9733    9.3814 H       1  UNL1        0.0624
     31 H          12.1810    9.1046   11.0529 H       1  UNL1        0.0618
     32 H          13.8729    7.3180   11.1909 H       1  UNL1        0.0618
     33 H          13.7715    5.3969    9.6443 H       1  UNL1        0.0618
     34 H          11.9651    5.2609    7.9635 H       1  UNL1        0.0624
@<TRIPOS>BOND
     1    20     3    1
     2    21     4    1
     3    25     9    1
     4     3     4   ar
     5     3     2   ar
     6    26    10    1
     7     4     5   ar
     8     9    10   ar
     9     9     8   ar
    10    10    11   ar
    11     1     2    1
    12     1     8    1
    13     1    14    1
    14     2     7   ar
    15     8    13   ar
    16     5    22    1
    17     5     6   ar
    18    34    19    1
    19    11    27    1
    20    11    12   ar
    21    14    19   ar
    22    14    15   ar
    23    19    18   ar
    24     7     6   ar
    25     7    24    1
    26     6    23    1
    27    13    12   ar
    28    13    29    1
    29    12    28    1
    30    30    15    1
    31    15    16   ar
    32    18    33    1
    33    18    17   ar
    34    16    17   ar
    35    16    31    1
    36    17    32    1
