@<TRIPOS>MOLECULE
1
 34 36 0 0 0
SMALL
GASTEIGER

@<TRIPOS>ATOM
      1 P          11.8852    6.7936    3.1353 P.3     1  UNL1       -0.0131
      2 C          12.5453    8.3033    2.3639 C.ar    1  UNL1       -0.0147
      3 C          13.8824    8.4890    2.0396 C.ar    1  UNL1       -0.0535
      4 C          14.2891    9.6799    1.4603 C.ar    1  UNL1       -0.0611
      5 C          13.3678   10.6796    1.1990 C.ar    1  UNL1       -0.0617
      6 C          12.0330   10.5004    1.5352 C.ar    1  UNL1       -0.0611
      7 C          11.6240    9.3220    2.1265 C.ar    1  UNL1       -0.0535
      8 C          13.2863    5.6335    3.0485 C.ar    1  UNL1       -0.0147
      9 C          13.4752    4.7839    1.9638 C.ar    1  UNL1       -0.0535
     10 C          14.5637    3.9303    1.9408 C.ar    1  UNL1       -0.0611
     11 C          15.4635    3.9157    2.9937 C.ar    1  UNL1       -0.0617
     12 C          15.2747    4.7572    4.0780 C.ar    1  UNL1       -0.0611
     13 C          14.1901    5.6129    4.1069 C.ar    1  UNL1       -0.0535
     14 C          10.7672    6.1687    1.8391 C.ar    1  UNL1       -0.0147
     15 C           9.8066    5.2296    2.2067 C.ar    1  UNL1       -0.0535
     16 C           8.9381    4.7175    1.2607 C.ar    1  UNL1       -0.0611
     17 C           9.0197    5.1382   -0.0568 C.ar    1  UNL1       -0.0617
     18 C           9.9782    6.0665   -0.4285 C.ar    1  UNL1       -0.0611
     19 C          10.8530    6.5804    0.5123 C.ar    1  UNL1       -0.0535
     20 H          14.6017    7.7061    2.2362 H       1  UNL1        0.0624
     21 H          15.3298    9.8252    1.2093 H       1  UNL1        0.0618
     22 H          13.6899   11.6029    0.7397 H       1  UNL1        0.0618
     23 H          11.3173   11.2857    1.3404 H       1  UNL1        0.0618
     24 H          10.5914    9.1718    2.4166 H       1  UNL1        0.0624
     25 H          12.7697    4.7842    1.1449 H       1  UNL1        0.0624
     26 H          14.7063    3.2688    1.0984 H       1  UNL1        0.0618
     27 H          16.3084    3.2426    2.9723 H       1  UNL1        0.0618
     28 H          15.9695    4.7422    4.9052 H       1  UNL1        0.0618
     29 H          14.0347    6.2628    4.9600 H       1  UNL1        0.0624
     30 H           9.7493    4.8992    3.2372 H       1  UNL1        0.0624
     31 H           8.1935    3.9915    1.5522 H       1  UNL1        0.0618
     32 H           8.3370    4.7429   -0.7948 H       1  UNL1        0.0618
     33 H          10.0464    6.3923   -1.4565 H       1  UNL1        0.0618
     34 H          11.6014    7.3029    0.2170 H       1  UNL1        0.0624
@<TRIPOS>BOND
     1    33    18    1
     2    32    17    1
     3    18    17   ar
     4    18    19   ar
     5    17    16   ar
     6    34    19    1
     7    19    14   ar
     8    22     5    1
     9    26    10    1
    10    25     9    1
    11     5     4   ar
    12     5     6   ar
    13    21     4    1
    14    16    31    1
    15    16    15   ar
    16    23     6    1
    17     4     3   ar
    18     6     7   ar
    19    14    15   ar
    20    14     1    1
    21    10     9   ar
    22    10    11   ar
    23     9     8   ar
    24     3    20    1
    25     3     2   ar
    26     7     2   ar
    27     7    24    1
    28    15    30    1
    29     2     1    1
    30    27    11    1
    31    11    12   ar
    32     8     1    1
    33     8    13   ar
    34    12    13   ar
    35    12    28    1
    36    13    29    1
