@<TRIPOS>MOLECULE
1
 22 21 0 0 0
SMALL
GASTEIGER

@<TRIPOS>ATOM
      1 P           2.1008    0.8507   -0.5327 P.3     1  UNL1       -0.1067
      2 C           2.5499    0.9337   -2.3186 C.3     1  UNL1       -0.0351
      3 C           2.5662   -0.4369   -2.9818 C.3     1  UNL1       -0.0613
      4 C           3.4924   -0.0814    0.2409 C.3     1  UNL1       -0.0351
      5 C           4.9001    0.4160   -0.0625 C.3     1  UNL1       -0.0613
      6 C           2.4230    2.6011   -0.0517 C.3     1  UNL1       -0.0351
      7 C           2.3970    2.8103    1.4575 C.3     1  UNL1       -0.0613
      8 H           3.5208    1.4288   -2.4168 H       1  UNL1        0.0310
      9 H           1.7912    1.5637   -2.7951 H       1  UNL1        0.0310
     10 H           1.5919   -0.9134   -2.8768 H       1  UNL1        0.0233
     11 H           3.3222   -1.0826   -2.5385 H       1  UNL1        0.0233
     12 H           2.7795   -0.3381   -4.0442 H       1  UNL1        0.0233
     13 H           3.3828   -1.1234   -0.0795 H       1  UNL1        0.0310
     14 H           3.2988   -0.0605    1.3189 H       1  UNL1        0.0310
     15 H           5.6228   -0.2002    0.4694 H       1  UNL1        0.0233
     16 H           5.0365    1.4447    0.2615 H       1  UNL1        0.0233
     17 H           5.1243    0.3523   -1.1248 H       1  UNL1        0.0233
     18 H           1.6384    3.1976   -0.5318 H       1  UNL1        0.0310
     19 H           3.3838    2.9144   -0.4719 H       1  UNL1        0.0310
     20 H           2.4159    3.8727    1.6931 H       1  UNL1        0.0233
     21 H           3.2544    2.3392    1.9327 H       1  UNL1        0.0233
     22 H           1.4955    2.3771    1.8906 H       1  UNL1        0.0233
@<TRIPOS>BOND
     1    12     3    1
     2     3    10    1
     3     3    11    1
     4     3     2    1
     5     9     2    1
     6     8     2    1
     7     2     1    1
     8    17     5    1
     9     1     6    1
    10     1     4    1
    11    18     6    1
    12    19     6    1
    13    13     4    1
    14     5     4    1
    15     5    16    1
    16     5    15    1
    17     6     7    1
    18     4    14    1
    19     7    20    1
    20     7    22    1
    21     7    21    1
