@<TRIPOS>MOLECULE
1
 22 21 0 0 0
SMALL
GASTEIGER

@<TRIPOS>ATOM
      1 P          -2.1057   -0.8445    0.5353 P.3     1  UNL1       -0.1067
      2 C          -2.5550   -0.9251    2.3212 C.3     1  UNL1       -0.0351
      3 C          -3.4969    0.0868   -0.2401 C.3     1  UNL1       -0.0351
      4 C          -2.4281   -2.5955    0.0565 C.3     1  UNL1       -0.0351
      5 C          -2.5692    0.4462    2.9830 C.3     1  UNL1       -0.0613
      6 H          -3.5266   -1.4186    2.4198 H       1  UNL1        0.0310
      7 H          -1.7973   -1.5557    2.7983 H       1  UNL1        0.0310
      8 C          -4.9049   -0.4094    0.0641 C.3     1  UNL1       -0.0613
      9 H          -3.3869    1.1294    0.0787 H       1  UNL1        0.0310
     10 H          -3.3032    0.0641   -1.3180 H       1  UNL1        0.0310
     11 C          -2.4025   -2.8066   -1.4525 C.3     1  UNL1       -0.0613
     12 H          -1.6434   -3.1913    0.5372 H       1  UNL1        0.0310
     13 H          -3.3888   -2.9082    0.4774 H       1  UNL1        0.0310
     14 H          -1.5938    0.9206    2.8786 H       1  UNL1        0.0233
     15 H          -3.3234    1.0930    2.5382 H       1  UNL1        0.0233
     16 H          -2.7840    0.3489    4.0453 H       1  UNL1        0.0233
     17 H          -5.6271    0.2058   -0.4695 H       1  UNL1        0.0233
     18 H          -5.0415   -1.4388   -0.2578 H       1  UNL1        0.0233
     19 H          -5.1294   -0.3433    1.1261 H       1  UNL1        0.0233
     20 H          -2.4210   -3.8692   -1.6868 H       1  UNL1        0.0233
     21 H          -3.2603   -2.3365   -1.9279 H       1  UNL1        0.0233
     22 H          -1.5013   -2.3735   -1.8864 H       1  UNL1        0.0233
@<TRIPOS>BOND
     1    21    11    1
     2    22    11    1
     3    20    11    1
     4    11     4    1
     5    10     3    1
     6    17     8    1
     7    18     8    1
     8     3     8    1
     9     3     9    1
    10     3     1    1
    11     4    13    1
    12     4     1    1
    13     4    12    1
    14     8    19    1
    15     1     2    1
    16     2     6    1
    17     2     7    1
    18     2     5    1
    19    15     5    1
    20    14     5    1
    21     5    16    1
