@<TRIPOS>MOLECULE
1
 22 21 0 0 0
SMALL
GASTEIGER

@<TRIPOS>ATOM
      1 P          -1.2119   -1.8858   -0.6164 P.3     1  UNL1       -0.1067
      2 C          -0.4486   -2.8294   -2.0064 C.3     1  UNL1       -0.0351
      3 C          -2.9616   -1.6336   -1.1420 C.3     1  UNL1       -0.0351
      4 C          -1.4640   -3.1648    0.6882 C.3     1  UNL1       -0.0351
      5 C          -1.1751   -4.0890   -2.4611 C.3     1  UNL1       -0.0613
      6 H          -0.3538   -2.1261   -2.8409 H       1  UNL1        0.0310
      7 H           0.5686   -3.0630   -1.6731 H       1  UNL1        0.0310
      8 C          -3.0788   -0.7347   -2.3652 C.3     1  UNL1       -0.0613
      9 H          -3.4236   -2.6087   -1.3239 H       1  UNL1        0.0310
     10 H          -3.4659   -1.1608   -0.2927 H       1  UNL1        0.0310
     11 C          -0.1558   -3.7989    1.1456 C.3     1  UNL1       -0.0613
     12 H          -1.9502   -2.6513    1.5255 H       1  UNL1        0.0310
     13 H          -2.1573   -3.9251    0.3153 H       1  UNL1        0.0310
     14 H          -0.6177   -4.5558   -3.2714 H       1  UNL1        0.0233
     15 H          -1.2589   -4.8121   -1.6539 H       1  UNL1        0.0233
     16 H          -2.1726   -3.8615   -2.8300 H       1  UNL1        0.0233
     17 H          -2.6314    0.2356   -2.1526 H       1  UNL1        0.0233
     18 H          -2.5815   -1.1733   -3.2284 H       1  UNL1        0.0233
     19 H          -4.1253   -0.5756   -2.6166 H       1  UNL1        0.0233
     20 H           0.5852   -3.0311    1.3674 H       1  UNL1        0.0233
     21 H          -0.3167   -4.3966    2.0409 H       1  UNL1        0.0233
     22 H           0.2571   -4.4427    0.3728 H       1  UNL1        0.0233
@<TRIPOS>BOND
     1    14     5    1
     2    18     8    1
     3     6     2    1
     4    16     5    1
     5    19     8    1
     6     5     2    1
     7     5    15    1
     8     8    17    1
     9     8     3    1
    10     2     7    1
    11     2     1    1
    12     9     3    1
    13     3     1    1
    14     3    10    1
    15     1     4    1
    16    13     4    1
    17    22    11    1
    18     4    11    1
    19     4    12    1
    20    11    20    1
    21    11    21    1
