@<TRIPOS>MOLECULE
1
 22 21 0 0 0
SMALL
GASTEIGER

@<TRIPOS>ATOM
      1 P           1.2121    1.8858    0.6166 P.3     1  UNL1       -0.1067
      2 C           0.4488    2.8294    2.0067 C.3     1  UNL1       -0.0351
      3 C           1.1754    4.0889    2.4615 C.3     1  UNL1       -0.0613
      4 C           2.9617    1.6334    1.1424 C.3     1  UNL1       -0.0351
      5 C           3.0787    0.7344    2.3656 C.3     1  UNL1       -0.0613
      6 C           1.4642    3.1649   -0.6878 C.3     1  UNL1       -0.0351
      7 C           0.1561    3.7992   -1.1450 C.3     1  UNL1       -0.0613
      8 H           0.3539    2.1261    2.8412 H       1  UNL1        0.0310
      9 H          -0.5684    3.0631    1.6735 H       1  UNL1        0.0310
     10 H           0.6178    4.5558    3.2717 H       1  UNL1        0.0233
     11 H           1.2595    4.8119    1.6542 H       1  UNL1        0.0233
     12 H           2.1728    3.8613    2.8306 H       1  UNL1        0.0233
     13 H           3.4237    2.6084    1.3245 H       1  UNL1        0.0310
     14 H           3.4661    1.1607    0.2932 H       1  UNL1        0.0310
     15 H           2.6312   -0.2359    2.1529 H       1  UNL1        0.0233
     16 H           2.5814    1.1730    3.2288 H       1  UNL1        0.0233
     17 H           4.1252    0.5752    2.6171 H       1  UNL1        0.0233
     18 H           1.9503    2.6513   -1.5252 H       1  UNL1        0.0310
     19 H           2.1578    3.9251   -0.3150 H       1  UNL1        0.0310
     20 H          -0.5850    3.0315   -1.3668 H       1  UNL1        0.0233
     21 H           0.3170    4.3969   -2.0403 H       1  UNL1        0.0233
     22 H          -0.2566    4.4431   -0.3722 H       1  UNL1        0.0233
@<TRIPOS>BOND
     1    21     7    1
     2    18     6    1
     3    20     7    1
     4     7     6    1
     5     7    22    1
     6     6    19    1
     7     6     1    1
     8    14     4    1
     9     1     4    1
    10     1     2    1
    11     4    13    1
    12     4     5    1
    13    11     3    1
    14     9     2    1
    15     2     3    1
    16     2     8    1
    17    15     5    1
    18     5    17    1
    19     5    16    1
    20     3    12    1
    21     3    10    1
