@<TRIPOS>MOLECULE
1
 48 49 0 0 0
SMALL
GASTEIGER

@<TRIPOS>ATOM
      1 P           2.1830    0.6559    6.6233 P.3     1  UNL1        0.0000
      2 AS          4.5147    0.6629    8.6156 As      1  UNL1        0.0000
      3 O           3.3073    1.7973    6.4314 O.3     1  UNL1        0.0000
      4 SI          2.7847   -1.9626    7.9864 Si      1  UNL1        0.0000
      5 SI          1.4940    0.6541    9.5588 Si      1  UNL1        0.0000
      6 C           2.7036   -0.0502    8.2119 C.3     1  UNL1        0.0000
      7 C           3.9541   -2.1932    6.4942 C.3     1  UNL1        0.0000
      8 H           4.9331   -1.7511    6.6814 H       1  UNL1        0.0000
      9 H           3.5241   -1.7043    5.6202 H       1  UNL1        0.0000
     10 H           4.1052   -3.2383    6.2445 H       1  UNL1        0.0000
     11 C           1.0968   -2.7689    7.6675 C.3     1  UNL1        0.0000
     12 H           0.3992   -2.0574    7.2376 H       1  UNL1        0.0000
     13 H           0.6581   -3.1734    8.5726 H       1  UNL1        0.0000
     14 H           1.2006   -3.5846    6.9599 H       1  UNL1        0.0000
     15 C           3.6059   -2.6589    9.5654 C.3     1  UNL1        0.0000
     16 H           3.8104   -3.7176    9.4545 H       1  UNL1        0.0000
     17 H           2.9635   -2.5389   10.4315 H       1  UNL1        0.0000
     18 H           4.5487   -2.1562    9.7750 H       1  UNL1        0.0000
     19 C          -0.0003   -0.4611    9.9231 C.3     1  UNL1        0.0000
     20 H          -0.6182    0.0052   10.6836 H       1  UNL1        0.0000
     21 H           0.3024   -1.4330   10.2963 H       1  UNL1        0.0000
     22 H          -0.6194   -0.6125    9.0471 H       1  UNL1        0.0000
     23 C           0.9411    2.3807    8.9659 C.3     1  UNL1        0.0000
     24 H           0.3635    2.9057    9.7203 H       1  UNL1        0.0000
     25 H           0.3203    2.2857    8.0750 H       1  UNL1        0.0000
     26 H           1.7961    3.0062    8.7132 H       1  UNL1        0.0000
     27 C           2.5097    0.8507   11.1718 C.3     1  UNL1        0.0000
     28 H           3.1606    1.7220   11.1283 H       1  UNL1        0.0000
     29 H           3.1372   -0.0198   11.3478 H       1  UNL1        0.0000
     30 H           1.8556    0.9681   12.0285 H       1  UNL1        0.0000
     31 C           4.4170    1.8481    7.2423 C.3     1  UNL1        0.0000
     32 C           5.3845    2.8601    6.8843 C.ar    1  UNL1        0.0000
     33 C           6.5617    3.0071    7.6284 C.ar    1  UNL1        0.0000
     34 H           6.7291    2.3403    8.4725 H       1  UNL1        0.0000
     35 C           7.4852    3.9733    7.3013 C.ar    1  UNL1        0.0000
     36 H           8.3875    4.0728    7.8877 H       1  UNL1        0.0000
     37 C           7.2712    4.8346    6.2264 C.ar    1  UNL1        0.0000
     38 C           6.1063    4.6887    5.4841 C.ar    1  UNL1        0.0000
     39 H           5.9242    5.3469    4.6460 H       1  UNL1        0.0000
     40 C           5.1758    3.7207    5.8025 C.ar    1  UNL1        0.0000
     41 H           4.2743    3.6244    5.2159 H       1  UNL1        0.0000
     42 C           8.2991    5.8627    5.8541 C.3     1  UNL1        0.0000
     43 H           8.7919    6.2360    6.7544 H       1  UNL1        0.0000
     44 H           7.8162    6.7048    5.3542 H       1  UNL1        0.0000
     45 C           9.3497    5.2578    4.9196 C.3     1  UNL1        0.0000
     46 H           9.8589    4.4296    5.4077 H       1  UNL1        0.0000
     47 H          10.0886    6.0064    4.6431 H       1  UNL1        0.0000
     48 H           8.8787    4.8831    4.0134 H       1  UNL1        0.0000
@<TRIPOS>BOND
     1    48    45    1
     2    47    45    1
     3    39    38    1
     4    45    46    1
     5    45    42    1
     6    41    40    1
     7    44    42    1
     8    38    40   ar
     9    38    37   ar
    10     9     7    1
    11    40    32   ar
    12    42    37    1
    13    42    43    1
    14    37    35   ar
    15    10     7    1
    16     3     1    1
    17     3    31    1
    18     7     8    1
    19     7     4    1
    20     1     6    1
    21    32    31    1
    22    32    33   ar
    23    14    11    1
    24    12    11    1
    25    31     2    1
    26    35    33   ar
    27    35    36    1
    28    33    34    1
    29    11     4    1
    30    11    13    1
    31     4     6    1
    32     4    15    1
    33    25    23    1
    34     6     2    1
    35     6     5    1
    36    26    23    1
    37    23     5    1
    38    23    24    1
    39    22    19    1
    40    16    15    1
    41     5    19    1
    42     5    27    1
    43    15    18    1
    44    15    17    1
    45    19    21    1
    46    19    20    1
    47    28    27    1
    48    27    29    1
    49    27    30    1
