@<TRIPOS>MOLECULE
1
 90 90 0 0 0
SMALL
GASTEIGER

@<TRIPOS>ATOM
      1 P           8.1928    0.2847    1.8700 P.3     1  UNL1        0.0000
      2 B           8.1970   -1.3632    2.8468 B       1  UNL1        0.0000
      3 P           8.8613   -1.1806    4.5916 P.3     1  UNL1        0.0000
      4 B          10.6115   -0.5201    4.4119 B       1  UNL1        0.0000
      5 P          10.6847    1.1599    3.5427 P.3     1  UNL1        0.0000
      6 B          10.0275    0.8027    1.8227 B       1  UNL1        0.0000
      7 N           7.5763   -2.5417    2.3625 N.3     1  UNL1        0.0000
      8 SI          6.4993   -3.4782    3.4301 Si      1  UNL1        0.0000
      9 C           5.8859   -2.4502    4.9113 C.3     1  UNL1        0.0000
     10 C           7.4184   -5.0228    4.0800 C.3     1  UNL1        0.0000
     11 C           4.9336   -3.9529    2.4558 C.3     1  UNL1        0.0000
     12 SI          7.7723   -3.0097    0.6672 Si      1  UNL1        0.0000
     13 C           9.4975   -2.4832    0.0284 C.3     1  UNL1        0.0000
     14 C           7.8270   -4.9084    0.4927 C.3     1  UNL1        0.0000
     15 C           6.3593   -2.2670   -0.3841 C.3     1  UNL1        0.0000
     16 N          11.7382   -1.1217    5.0492 N.3     1  UNL1        0.0000
     17 SI         11.9691   -2.8756    4.9828 Si      1  UNL1        0.0000
     18 C          11.2982   -3.7017    6.5724 C.3     1  UNL1        0.0000
     19 C          13.8215   -3.2673    4.7562 C.3     1  UNL1        0.0000
     20 C          11.1215   -3.6508    3.4511 C.3     1  UNL1        0.0000
     21 SI         12.8293   -0.1076    6.0147 Si      1  UNL1        0.0000
     22 C          11.9268    1.4665    6.5945 C.3     1  UNL1        0.0000
     23 C          14.3963    0.3404    5.0154 C.3     1  UNL1        0.0000
     24 C          13.3145   -1.0231    7.6141 C.3     1  UNL1        0.0000
     25 N          10.7521    0.9897    0.6128 N.3     1  UNL1        0.0000
     26 SI         12.4383    0.4553    0.4710 Si      1  UNL1        0.0000
     27 C          12.7257   -0.2639   -1.2722 C.3     1  UNL1        0.0000
     28 C          12.7994   -1.0179    1.6238 C.3     1  UNL1        0.0000
     29 C          13.6423    1.8943    0.8378 C.3     1  UNL1        0.0000
     30 SI         10.0136    1.8883   -0.7305 Si      1  UNL1        0.0000
     31 C          11.3092    3.0618   -1.4927 C.3     1  UNL1        0.0000
     32 C           8.6523    3.0349   -0.0690 C.3     1  UNL1        0.0000
     33 C           9.3074    0.7017   -2.0502 C.3     1  UNL1        0.0000
     34 H           7.9791   -0.1280    0.5523 H       1  UNL1        0.0000
     35 H           9.0475   -2.4978    4.9937 H       1  UNL1        0.0000
     36 H          12.0463    1.3430    3.3262 H       1  UNL1        0.0000
     37 H           6.5631   -2.4987    5.7578 H       1  UNL1        0.0000
     38 H           4.9191   -2.8137    5.2460 H       1  UNL1        0.0000
     39 H           5.7674   -1.4024    4.6489 H       1  UNL1        0.0000
     40 H           6.7341   -5.6548    4.6368 H       1  UNL1        0.0000
     41 H           8.2281   -4.7495    4.7498 H       1  UNL1        0.0000
     42 H           7.8389   -5.6201    3.2793 H       1  UNL1        0.0000
     43 H           5.1344   -4.5181    1.5546 H       1  UNL1        0.0000
     44 H           4.3735   -3.0685    2.1725 H       1  UNL1        0.0000
     45 H           4.2881   -4.5588    3.0837 H       1  UNL1        0.0000
     46 H           9.7847   -1.4807    0.3278 H       1  UNL1        0.0000
     47 H           9.5188   -2.5196   -1.0565 H       1  UNL1        0.0000
     48 H          10.2625   -3.1670    0.3844 H       1  UNL1        0.0000
     49 H           6.9464   -5.4062    0.8773 H       1  UNL1        0.0000
     50 H           8.6906   -5.3270    0.9993 H       1  UNL1        0.0000
     51 H           7.9139   -5.1658   -0.5582 H       1  UNL1        0.0000
     52 H           6.7041   -1.9894   -1.3758 H       1  UNL1        0.0000
     53 H           5.9396   -1.3794    0.0825 H       1  UNL1        0.0000
     54 H           5.5489   -2.9772   -0.5137 H       1  UNL1        0.0000
     55 H          11.0312   -4.7385    6.3901 H       1  UNL1        0.0000
     56 H          10.4138   -3.1913    6.9424 H       1  UNL1        0.0000
     57 H          12.0351   -3.6954    7.3681 H       1  UNL1        0.0000
     58 H          14.4406   -2.8618    5.5465 H       1  UNL1        0.0000
     59 H          14.1975   -2.8860    3.8124 H       1  UNL1        0.0000
     60 H          13.9625   -4.3434    4.7514 H       1  UNL1        0.0000
     61 H          10.4155   -2.9755    2.9788 H       1  UNL1        0.0000
     62 H          10.5738   -4.5461    3.7262 H       1  UNL1        0.0000
     63 H          11.8559   -3.9428    2.7070 H       1  UNL1        0.0000
     64 H          11.9406    2.2468    5.8405 H       1  UNL1        0.0000
     65 H          12.3879    1.8696    7.4909 H       1  UNL1        0.0000
     66 H          10.8861    1.2564    6.8224 H       1  UNL1        0.0000
     67 H          15.1247    0.8218    5.6604 H       1  UNL1        0.0000
     68 H          14.1726    1.0289    4.2059 H       1  UNL1        0.0000
     69 H          14.8693   -0.5339    4.5813 H       1  UNL1        0.0000
     70 H          13.8623   -1.9395    7.4343 H       1  UNL1        0.0000
     71 H          12.4409   -1.2695    8.2076 H       1  UNL1        0.0000
     72 H          13.9477   -0.3803    8.2169 H       1  UNL1        0.0000
     73 H          12.4670    0.4196   -2.0706 H       1  UNL1        0.0000
     74 H          12.1565   -1.1760   -1.4201 H       1  UNL1        0.0000
     75 H          13.7750   -0.5164   -1.3863 H       1  UNL1        0.0000
     76 H          12.7516   -0.7638    2.6754 H       1  UNL1        0.0000
     77 H          13.7946   -1.4038    1.4243 H       1  UNL1        0.0000
     78 H          12.0969   -1.8255    1.4536 H       1  UNL1        0.0000
     79 H          14.5504    1.5277    1.3073 H       1  UNL1        0.0000
     80 H          13.1964    2.6255    1.5052 H       1  UNL1        0.0000
     81 H          13.9353    2.4142   -0.0682 H       1  UNL1        0.0000
     82 H          12.1576    2.5483   -1.9265 H       1  UNL1        0.0000
     83 H          11.6885    3.7592   -0.7534 H       1  UNL1        0.0000
     84 H          10.8451    3.6450   -2.2816 H       1  UNL1        0.0000
     85 H           7.7072    2.5149    0.0526 H       1  UNL1        0.0000
     86 H           8.4801    3.8654   -0.7461 H       1  UNL1        0.0000
     87 H           8.9254    3.4496    0.8964 H       1  UNL1        0.0000
     88 H           8.4015    0.2141   -1.7027 H       1  UNL1        0.0000
     89 H          10.0121   -0.0737   -2.3288 H       1  UNL1        0.0000
     90 H           9.0543    1.2547   -2.9492 H       1  UNL1        0.0000
@<TRIPOS>BOND
     1    90    33    1
     2    89    33    1
     3    84    31    1
     4    73    27    1
     5    33    88    1
     6    33    30    1
     7    82    31    1
     8    31    83    1
     9    31    30    1
    10    74    27    1
    11    75    27    1
    12    52    15    1
    13    27    26    1
    14    47    13    1
    15    86    32    1
    16    30    32    1
    17    30    25    1
    18    51    14    1
    19    54    15    1
    20    15    53    1
    21    15    12    1
    22    32    85    1
    23    32    87    1
    24    81    29    1
    25    13    46    1
    26    13    48    1
    27    13    12    1
    28    26    25    1
    29    26    29    1
    30    26    28    1
    31    14    12    1
    32    14    49    1
    33    14    50    1
    34    34     1    1
    35    25     6    1
    36    12     7    1
    37    29    79    1
    38    29    80    1
    39    77    28    1
    40    78    28    1
    41    43    11    1
    42    28    76    1
    43     6     1    1
    44     6     5    1
    45     1     2    1
    46    44    11    1
    47     7     2    1
    48     7     8    1
    49    11    45    1
    50    11     8    1
    51    63    20    1
    52     2     3    1
    53    61    20    1
    54    42    10    1
    55    36     5    1
    56     8    10    1
    57     8     9    1
    58    20    62    1
    59    20    17    1
    60     5     4    1
    61    59    19    1
    62    10    40    1
    63    10    41    1
    64    68    23    1
    65     4     3    1
    66     4    16    1
    67    69    23    1
    68     3    35    1
    69    39     9    1
    70    60    19    1
    71    19    17    1
    72    19    58    1
    73     9    38    1
    74     9    37    1
    75    17    16    1
    76    17    18    1
    77    23    67    1
    78    23    21    1
    79    16    21    1
    80    64    22    1
    81    21    22    1
    82    21    24    1
    83    55    18    1
    84    18    56    1
    85    18    57    1
    86    22    66    1
    87    22    65    1
    88    70    24    1
    89    24    71    1
    90    24    72    1
