@<TRIPOS>MOLECULE
1
 13 12 0 0 0
SMALL
GASTEIGER

@<TRIPOS>ATOM
      1 P           2.9306   11.3273    2.8724 P.3     1  UNL1       -0.1154
      2 C           1.3845   12.2320    3.3245 C.3     1  UNL1       -0.0447
      3 H           1.5368   13.3081    3.2405 H       1  UNL1        0.0277
      4 H           1.0948   11.9867    4.3431 H       1  UNL1        0.0277
      5 H           0.5826   11.9284    2.6524 H       1  UNL1        0.0277
      6 C           4.1357   12.2157    3.9579 C.3     1  UNL1       -0.0447
      7 H           5.1490   11.9151    3.6891 H       1  UNL1        0.0277
      8 H           3.9558   11.9291    4.9936 H       1  UNL1        0.0277
      9 H           4.0337   13.2968    3.8552 H       1  UNL1        0.0277
     10 C           3.2701   12.2398    1.2895 C.3     1  UNL1       -0.0447
     11 H           2.5168   11.9688    0.5499 H       1  UNL1        0.0277
     12 H           4.2493   11.9700    0.8969 H       1  UNL1        0.0277
     13 H           3.2380   13.3174    1.4502 H       1  UNL1        0.0277
@<TRIPOS>BOND
     1    11    10    1
     2    12    10    1
     3    10    13    1
     4    10     1    1
     5     5     2    1
     6     1     2    1
     7     1     6    1
     8     3     2    1
     9     2     4    1
    10     7     6    1
    11     9     6    1
    12     6     8    1
