@<TRIPOS>MOLECULE
1
 51 52 0 0 0
SMALL
GASTEIGER

@<TRIPOS>ATOM
      1 P           1.8569    3.2691    3.2676 P.3     1  UNL1        0.0000
      2 C           1.8389    3.4764    4.9309 C.2     1  UNL1        0.0000
      3 SI          0.5698    4.6953    5.6941 Si      1  UNL1        0.0000
      4 C           0.8456    4.7385    7.5788 C.3     1  UNL1        0.0000
      5 C          -1.1922    4.0478    5.3627 C.3     1  UNL1        0.0000
      6 C           0.9173    6.4297    4.9800 C.3     1  UNL1        0.0000
      7 C           2.6965    2.8413    5.9379 C.ar    1  UNL1        0.0000
      8 C           2.3286    1.6253    6.5065 C.ar    1  UNL1        0.0000
      9 C           3.0814    1.0684    7.5236 C.ar    1  UNL1        0.0000
     10 C           4.2074    1.7218    7.9950 C.ar    1  UNL1        0.0000
     11 C           4.5719    2.9403    7.4469 C.ar    1  UNL1        0.0000
     12 C           3.8189    3.4997    6.4318 C.ar    1  UNL1        0.0000
     13 C           3.2372    2.1200    2.7047 C.3     1  UNL1        0.0000
     14 C           2.5259    1.0073    1.9805 C.2     1  UNL1        0.0000
     15 C           2.7769    1.1073    0.6589 C.2     1  UNL1        0.0000
     16 C           3.6279    2.2706    0.4133 C.2     1  UNL1        0.0000
     17 C           3.9001    2.8807    1.5850 C.2     1  UNL1        0.0000
     18 C           4.2424    1.6153    3.7292 C.3     1  UNL1        0.0000
     19 C           1.7268   -0.0068    2.7234 C.3     1  UNL1        0.0000
     20 C           2.3335    0.1945   -0.4317 C.3     1  UNL1        0.0000
     21 C           4.1125    2.6371   -0.9469 C.3     1  UNL1        0.0000
     22 C           4.7397    4.0797    1.8627 C.3     1  UNL1        0.0000
     23 H           0.1302    5.4012    8.0544 H       1  UNL1        0.0000
     24 H           0.7286    3.7543    8.0211 H       1  UNL1        0.0000
     25 H           1.8403    5.0907    7.8317 H       1  UNL1        0.0000
     26 H          -1.9234    4.8442    5.4547 H       1  UNL1        0.0000
     27 H          -1.2820    3.6290    4.3639 H       1  UNL1        0.0000
     28 H          -1.4620    3.2714    6.0728 H       1  UNL1        0.0000
     29 H           0.0328    7.0566    5.0231 H       1  UNL1        0.0000
     30 H           1.7020    6.9325    5.5381 H       1  UNL1        0.0000
     31 H           1.2332    6.3730    3.9409 H       1  UNL1        0.0000
     32 H           1.4442    1.1206    6.1433 H       1  UNL1        0.0000
     33 H           2.7860    0.1215    7.9521 H       1  UNL1        0.0000
     34 H           4.7946    1.2866    8.7896 H       1  UNL1        0.0000
     35 H           5.4449    3.4591    7.8155 H       1  UNL1        0.0000
     36 H           4.0976    4.4538    6.0066 H       1  UNL1        0.0000
     37 H           4.9888    1.0203    3.2028 H       1  UNL1        0.0000
     38 H           4.7446    2.4397    4.2271 H       1  UNL1        0.0000
     39 H           3.7669    0.9891    4.4775 H       1  UNL1        0.0000
     40 H           0.9421   -0.4264    2.0977 H       1  UNL1        0.0000
     41 H           2.3617   -0.8246    3.0696 H       1  UNL1        0.0000
     42 H           1.2639    0.4568    3.5966 H       1  UNL1        0.0000
     43 H           1.6789   -0.5836   -0.0490 H       1  UNL1        0.0000
     44 H           1.8035    0.7507   -1.2036 H       1  UNL1        0.0000
     45 H           3.1981   -0.2779   -0.8980 H       1  UNL1        0.0000
     46 H           4.6424    3.5857   -0.9306 H       1  UNL1        0.0000
     47 H           4.7890    1.8696   -1.3234 H       1  UNL1        0.0000
     48 H           3.2775    2.7130   -1.6417 H       1  UNL1        0.0000
     49 H           4.7469    4.7620    1.0155 H       1  UNL1        0.0000
     50 H           4.3497    4.6110    2.7337 H       1  UNL1        0.0000
     51 H           5.7708    3.7906    2.0749 H       1  UNL1        0.0000
@<TRIPOS>BOND
     1    48    21    1
     2    47    21    1
     3    44    20    1
     4    21    46    1
     5    21    16    1
     6    45    20    1
     7    20    43    1
     8    20    15    1
     9    16    15    1
    10    16    17    2
    11    15    14    2
    12    49    22    1
    13    17    22    1
    14    17    13    1
    15    22    51    1
    16    22    50    1
    17    14    13    1
    18    14    19    1
    19    40    19    1
    20    13     1    1
    21    13    18    1
    22    19    41    1
    23    19    42    1
    24    37    18    1
    25     1     2    2
    26    18    38    1
    27    18    39    1
    28    31     6    1
    29    27     5    1
    30     2     3    1
    31     2     7    1
    32     6    29    1
    33     6    30    1
    34     6     3    1
    35     5    26    1
    36     5     3    1
    37     5    28    1
    38     3     4    1
    39     7    12   ar
    40     7     8   ar
    41    36    12    1
    42    32     8    1
    43    12    11   ar
    44     8     9   ar
    45    11    35    1
    46    11    10   ar
    47     9    33    1
    48     9    10   ar
    49     4    25    1
    50     4    24    1
    51     4    23    1
    52    10    34    1
