@<TRIPOS>MOLECULE
1
 34 36 0 0 0
SMALL
GASTEIGER

@<TRIPOS>ATOM
      1 P          -1.0491    1.1643    8.6508 P.3     1  UNL1       -0.0131
      2 C           0.5742    1.4769    7.9122 C.ar    1  UNL1       -0.0147
      3 C           0.7609    2.7199    7.3067 C.ar    1  UNL1       -0.0535
      4 C           1.9166    2.9756    6.5925 C.ar    1  UNL1       -0.0611
      5 C           2.8886    1.9937    6.4710 C.ar    1  UNL1       -0.0617
      6 C           2.7019    0.7565    7.0644 C.ar    1  UNL1       -0.0611
      7 C           1.5476    0.4919    7.7818 C.ar    1  UNL1       -0.0535
      8 C          -1.3193    2.6017    9.7409 C.ar    1  UNL1       -0.0147
      9 C          -0.3093    3.2012   10.4857 C.ar    1  UNL1       -0.0535
     10 C          -0.6052    4.2730   11.3087 C.ar    1  UNL1       -0.0611
     11 C          -1.9047    4.7471   11.3930 C.ar    1  UNL1       -0.0617
     12 C          -2.9130    4.1525   10.6506 C.ar    1  UNL1       -0.0611
     13 C          -2.6238    3.0802    9.8248 C.ar    1  UNL1       -0.0535
     14 C          -0.8463   -0.1893    9.8454 C.ar    1  UNL1       -0.0147
     15 C           0.2825   -0.3429   10.6431 C.ar    1  UNL1       -0.0535
     16 C           0.3417   -1.3784   11.5584 C.ar    1  UNL1       -0.0611
     17 C          -0.7263   -2.2499   11.6949 C.ar    1  UNL1       -0.0617
     18 C          -1.8598   -2.0882   10.9146 C.ar    1  UNL1       -0.0611
     19 C          -1.9209   -1.0613    9.9895 C.ar    1  UNL1       -0.0535
     20 H          -0.0193    3.4674    7.3885 H       1  UNL1        0.0624
     21 H           2.0581    3.9372    6.1216 H       1  UNL1        0.0618
     22 H           3.7873    2.1911    5.9058 H       1  UNL1        0.0618
     23 H           3.4545   -0.0112    6.9633 H       1  UNL1        0.0618
     24 H           1.3924   -0.4835    8.2201 H       1  UNL1        0.0624
     25 H           0.7061    2.8374   10.4098 H       1  UNL1        0.0624
     26 H           0.1795    4.7424   11.8839 H       1  UNL1        0.0618
     27 H          -2.1296    5.5861   12.0348 H       1  UNL1        0.0618
     28 H          -3.9229    4.5291   10.7133 H       1  UNL1        0.0618
     29 H          -3.3930    2.6087    9.2180 H       1  UNL1        0.0624
     30 H           1.1122    0.3426   10.5475 H       1  UNL1        0.0624
     31 H           1.2227   -1.5038   12.1704 H       1  UNL1        0.0618
     32 H          -0.6754   -3.0535   12.4145 H       1  UNL1        0.0618
     33 H          -2.6943   -2.7645   11.0275 H       1  UNL1        0.0618
     34 H          -2.7982   -0.9188    9.3659 H       1  UNL1        0.0624
@<TRIPOS>BOND
     1    22     5    1
     2    21     4    1
     3     5     4   ar
     4     5     6   ar
     5     4     3   ar
     6    23     6    1
     7     6     7   ar
     8     3    20    1
     9     3     2   ar
    10     7     2   ar
    11     7    24    1
    12     2     1    1
    13     1     8    1
    14     1    14    1
    15    29    13    1
    16    34    19    1
    17     8    13   ar
    18     8     9   ar
    19    13    12   ar
    20    14    19   ar
    21    14    15   ar
    22    19    18   ar
    23    25     9    1
    24     9    10   ar
    25    30    15    1
    26    15    16   ar
    27    12    28    1
    28    12    11   ar
    29    18    33    1
    30    18    17   ar
    31    10    11   ar
    32    10    26    1
    33    11    27    1
    34    16    17   ar
    35    16    31    1
    36    17    32    1
