@<TRIPOS>MOLECULE
1
 52 52 0 0 0
SMALL
GASTEIGER

@<TRIPOS>ATOM
      1 P          -1.7295    2.5997    3.6415 P.3     1  UNL1        0.0000
      2 SI         -2.6811    2.4686    6.5031 Si      1  UNL1        0.0000
      3 SI         -4.6900    3.3973    4.0169 Si      1  UNL1        0.0000
      4 N          -2.1547    3.5580    2.3330 N.3     1  UNL1        0.0000
      5 N          -1.5355    5.5373    1.3116 N.3     1  UNL1        0.0000
      6 N           1.8660    4.7540    2.7751 N.1     1  UNL1        0.0000
      7 O          -0.8963    3.8243    4.4162 O.3     1  UNL1        0.0000
      8 O          -0.9369    6.1122    4.1631 O.3     1  UNL1        0.0000
      9 C          -3.2056    2.3617    4.6554 C.3     1  UNL1        0.0000
     10 H          -3.4566    1.3131    4.4683 H       1  UNL1        0.0000
     11 C          -0.8841    1.9129    6.8117 C.3     1  UNL1        0.0000
     12 H          -0.6693    1.8643    7.8760 H       1  UNL1        0.0000
     13 H          -0.1720    2.5964    6.3621 H       1  UNL1        0.0000
     14 H          -0.6958    0.9261    6.3968 H       1  UNL1        0.0000
     15 C          -2.9246    4.2531    7.1376 C.3     1  UNL1        0.0000
     16 H          -3.9764    4.5058    7.2222 H       1  UNL1        0.0000
     17 H          -2.4684    4.9748    6.4699 H       1  UNL1        0.0000
     18 H          -2.4769    4.3778    8.1188 H       1  UNL1        0.0000
     19 C          -3.8112    1.2694    7.4629 C.3     1  UNL1        0.0000
     20 H          -3.6062    1.3303    8.5259 H       1  UNL1        0.0000
     21 H          -3.6475    0.2408    7.1579 H       1  UNL1        0.0000
     22 H          -4.8616    1.4928    7.3182 H       1  UNL1        0.0000
     23 C          -4.3438    5.2770    3.9543 C.3     1  UNL1        0.0000
     24 H          -3.3091    5.5124    4.1770 H       1  UNL1        0.0000
     25 H          -4.9645    5.8155    4.6641 H       1  UNL1        0.0000
     26 H          -4.5569    5.6737    2.9661 H       1  UNL1        0.0000
     27 C          -5.1954    2.7035    2.3117 C.3     1  UNL1        0.0000
     28 H          -5.6281    1.7116    2.4100 H       1  UNL1        0.0000
     29 H          -4.3388    2.6229    1.6509 H       1  UNL1        0.0000
     30 H          -5.9362    3.3343    1.8289 H       1  UNL1        0.0000
     31 C          -6.1674    3.1097    5.1909 C.3     1  UNL1        0.0000
     32 H          -7.0480    3.6056    4.7978 H       1  UNL1        0.0000
     33 H          -5.9898    3.4990    6.1870 H       1  UNL1        0.0000
     34 H          -6.4039    2.0555    5.2845 H       1  UNL1        0.0000
     35 C          -1.4977    4.6625    2.3092 C.3     1  UNL1        0.0000
     36 C          -0.7172    6.7234    1.2377 C.3     1  UNL1        0.0000
     37 H          -1.2658    7.4885    0.6881 H       1  UNL1        0.0000
     38 H           0.2217    6.5172    0.7143 H       1  UNL1        0.0000
     39 H          -0.4989    7.1003    2.2332 H       1  UNL1        0.0000
     40 C          -2.2722    5.2069    0.1123 C.3     1  UNL1        0.0000
     41 H          -2.7814    4.2596    0.2654 H       1  UNL1        0.0000
     42 H          -1.5863    5.1194   -0.7328 H       1  UNL1        0.0000
     43 H          -3.0048    5.9875   -0.0994 H       1  UNL1        0.0000
     44 C          -0.6151    4.8981    3.5637 C.3     1  UNL1        0.0000
     45 C           0.7838    4.8266    3.1361 C.1     1  UNL1        0.0000
     46 C          -0.1537    6.4334    5.3177 C.3     1  UNL1        0.0000
     47 H           0.8911    6.5856    5.0140 H       1  UNL1        0.0000
     48 H          -0.1934    5.5978    6.0259 H       1  UNL1        0.0000
     49 C          -0.7310    7.6947    5.9324 C.3     1  UNL1        0.0000
     50 H          -0.6898    8.5125    5.2179 H       1  UNL1        0.0000
     51 H          -0.1577    7.9625    6.8150 H       1  UNL1        0.0000
     52 H          -1.7676    7.5323    6.2151 H       1  UNL1        0.0000
@<TRIPOS>BOND
     1    42    40    1
     2    43    40    1
     3    40    41    1
     4    40     5    1
     5    37    36    1
     6    38    36    1
     7    36     5    1
     8    36    39    1
     9     5    35    1
    10    29    27    1
    11    30    27    1
    12    35     4    1
    13    35    44    1
    14    27    28    1
    15    27     3    1
    16     4     1    1
    17     6    45    3
    18    26    23    1
    19    45    44    1
    20    44     8    1
    21    44     7    1
    22     1     7    1
    23     1     9    1
    24    23     3    1
    25    23    24    1
    26    23    25    1
    27     3     9    1
    28     3    31    1
    29     8    46    1
    30    10     9    1
    31     9     2    1
    32    32    31    1
    33    47    46    1
    34    31    34    1
    35    31    33    1
    36    50    49    1
    37    46    49    1
    38    46    48    1
    39    49    52    1
    40    49    51    1
    41    13    11    1
    42    14    11    1
    43    17    15    1
    44     2    11    1
    45     2    15    1
    46     2    19    1
    47    11    12    1
    48    15    16    1
    49    15    18    1
    50    21    19    1
    51    22    19    1
    52    19    20    1
