@<TRIPOS>MOLECULE
1
 55 57 0 0 0
SMALL
GASTEIGER

@<TRIPOS>ATOM
      1 P          -0.9130    1.8824    4.0637 P.3     1  UNL1        0.0000
      2 SI         -2.1173    4.3615    2.8824 Si      1  UNL1        0.0000
      3 SI          0.5277    2.9849    1.4973 Si      1  UNL1        0.0000
      4 N          -2.2334    1.2785    3.2670 N.2     1  UNL1        0.5000
      5 N          -0.7874   -0.5238    3.1657 N.2     1  UNL1        0.5000
      6 C           0.0186    0.3441    3.6968 C.2     1  UNL1        0.0000
      7 C          -2.0156    0.0384    2.9164 C.2     1  UNL1        0.0000
      8 C          -0.4629    3.3687    3.1117 C.3     1  UNL1        0.0000
      9 H           0.1772    3.9483    3.7833 H       1  UNL1        0.0000
     10 C          -2.9928    3.8565    1.2647 C.3     1  UNL1        0.0000
     11 H          -3.3030    2.8175    1.3103 H       1  UNL1        0.0000
     12 H          -2.3713    3.9813    0.3854 H       1  UNL1        0.0000
     13 H          -3.8843    4.4598    1.1236 H       1  UNL1        0.0000
     14 C          -3.3982    4.1284    4.2698 C.3     1  UNL1        0.0000
     15 H          -4.3559    4.5441    3.9692 H       1  UNL1        0.0000
     16 H          -3.1128    4.6187    5.1942 H       1  UNL1        0.0000
     17 H          -3.5474    3.0740    4.4761 H       1  UNL1        0.0000
     18 C          -1.6193    6.2036    2.8706 C.3     1  UNL1        0.0000
     19 H          -0.8913    6.4340    2.1023 H       1  UNL1        0.0000
     20 H          -1.2005    6.5082    3.8247 H       1  UNL1        0.0000
     21 H          -2.4928    6.8195    2.6894 H       1  UNL1        0.0000
     22 C           0.6224    4.5875    0.4639 C.3     1  UNL1        0.0000
     23 H           1.1359    5.3745    1.0066 H       1  UNL1        0.0000
     24 H          -0.3488    4.9678    0.1714 H       1  UNL1        0.0000
     25 H           1.1882    4.4020   -0.4432 H       1  UNL1        0.0000
     26 C          -0.2540    1.5836    0.4724 C.3     1  UNL1        0.0000
     27 H           0.1103    1.6098   -0.5503 H       1  UNL1        0.0000
     28 H          -1.3357    1.6513    0.4402 H       1  UNL1        0.0000
     29 H          -0.0015    0.6095    0.8810 H       1  UNL1        0.0000
     30 C           2.3516    2.5370    1.8563 C.3     1  UNL1        0.0000
     31 H           2.4739    1.5131    2.1940 H       1  UNL1        0.0000
     32 H           2.7972    3.1882    2.6024 H       1  UNL1        0.0000
     33 H           2.9341    2.6483    0.9465 H       1  UNL1        0.0000
     34 C           1.3356    0.0022    4.1795 C.ar    1  UNL1        0.0000
     35 C           2.1708    1.0007    4.6816 C.ar    1  UNL1        0.0000
     36 H           1.8208    2.0257    4.6802 H       1  UNL1        0.0000
     37 C           3.4263    0.6837    5.1586 C.ar    1  UNL1        0.0000
     38 H           4.0665    1.4592    5.5512 H       1  UNL1        0.0000
     39 C           3.8604   -0.6335    5.1408 C.ar    1  UNL1        0.0000
     40 H           4.8398   -0.8818    5.5216 H       1  UNL1        0.0000
     41 C           3.0396   -1.6314    4.6374 C.ar    1  UNL1        0.0000
     42 H           3.3815   -2.6555    4.6261 H       1  UNL1        0.0000
     43 C           1.7832   -1.3204    4.1562 C.ar    1  UNL1        0.0000
     44 H           1.1260   -2.0823    3.7674 H       1  UNL1        0.0000
     45 C          -3.0449   -0.7689    2.2862 C.ar    1  UNL1        0.0000
     46 C          -4.3282   -0.2508    2.1079 C.ar    1  UNL1        0.0000
     47 H          -4.5388    0.7497    2.4541 H       1  UNL1        0.0000
     48 C          -5.3056   -1.0182    1.5068 C.ar    1  UNL1        0.0000
     49 H          -6.2992   -0.6168    1.3723 H       1  UNL1        0.0000
     50 C          -5.0148   -2.3051    1.0790 C.ar    1  UNL1        0.0000
     51 H          -5.7825   -2.9040    0.6113 H       1  UNL1        0.0000
     52 C          -3.7420   -2.8252    1.2550 C.ar    1  UNL1        0.0000
     53 H          -3.5193   -3.8288    0.9236 H       1  UNL1        0.0000
     54 C          -2.7588   -2.0645    1.8571 C.ar    1  UNL1        0.0000
     55 H          -1.7638   -2.4538    2.0059 H       1  UNL1        0.0000
@<TRIPOS>BOND
     1    27    26    1
     2    25    22    1
     3    24    22    1
     4    12    10    1
     5    28    26    1
     6    22    23    1
     7    22     3    1
     8    26    29    1
     9    26     3    1
    10    51    50    1
    11    53    52    1
    12    33    30    1
    13    50    52   ar
    14    50    48   ar
    15    13    10    1
    16    52    54   ar
    17    10    11    1
    18    10     2    1
    19    49    48    1
    20     3    30    1
    21     3     8    1
    22    48    46   ar
    23    30    31    1
    24    30    32    1
    25    54    55    1
    26    54    45   ar
    27    19    18    1
    28    46    45   ar
    29    46    47    1
    30    45     7    1
    31    21    18    1
    32    18     2    1
    33    18    20    1
    34     2     8    1
    35     2    14    1
    36     7     5    1
    37     7     4    2
    38     8     9    1
    39     8     1    1
    40     5     6    2
    41     4     1    1
    42     6     1    1
    43     6    34    1
    44    44    43    1
    45    15    14    1
    46    43    34   ar
    47    43    41   ar
    48    34    35   ar
    49    14    17    1
    50    14    16    1
    51    42    41    1
    52    41    39   ar
    53    36    35    1
    54    35    37   ar
    55    39    37   ar
    56    39    40    1
    57    37    38    1
