@<TRIPOS>MOLECULE
1
 51 51 0 0 0
SMALL
GASTEIGER

@<TRIPOS>ATOM
      1 P           2.5746    0.5548    3.0409 P.3     1  UNL1        0.0000
      2 SI          0.3924   -0.6639    4.7184 Si      1  UNL1        0.0000
      3 SI          2.2741   -2.4983    2.6712 Si      1  UNL1        0.0000
      4 N           3.9653    0.0899    2.2131 N.2     1  UNL1        0.5000
      5 N           3.2823    0.5974    4.5612 N.2     1  UNL1        0.5000
      6 N           5.3914    0.3881    5.5063 N.pl3   1  UNL1        0.5000
      7 N           6.2614    0.0906    2.5886 N.pl3   1  UNL1        0.5000
      8 C           4.5611    0.3921    4.4371 C.2     1  UNL1        0.0000
      9 C           4.9763    0.1852    3.0227 C.2     1  UNL1        0.0000
     10 C           1.4107   -0.8426    3.0999 C.3     1  UNL1        0.0000
     11 H           0.7290   -0.6299    2.2708 H       1  UNL1        0.0000
     12 C          -1.3345   -1.3986    4.3778 C.3     1  UNL1        0.0000
     13 H          -1.2877   -2.4487    4.1140 H       1  UNL1        0.0000
     14 H          -1.8361   -0.8764    3.5694 H       1  UNL1        0.0000
     15 H          -1.9587   -1.3098    5.2599 H       1  UNL1        0.0000
     16 C           0.1820    1.1532    5.2404 C.3     1  UNL1        0.0000
     17 H          -0.3570    1.7301    4.4937 H       1  UNL1        0.0000
     18 H           1.1545    1.6132    5.3818 H       1  UNL1        0.0000
     19 H          -0.3660    1.2363    6.1749 H       1  UNL1        0.0000
     20 C           1.2438   -1.6009    6.1470 C.3     1  UNL1        0.0000
     21 H           0.6394   -1.5495    7.0470 H       1  UNL1        0.0000
     22 H           2.2073   -1.1553    6.3696 H       1  UNL1        0.0000
     23 H           1.4015   -2.6487    5.9143 H       1  UNL1        0.0000
     24 C           3.8106   -2.8537    3.7544 C.3     1  UNL1        0.0000
     25 H           3.9230   -3.9193    3.9312 H       1  UNL1        0.0000
     26 H           3.7369   -2.3629    4.7189 H       1  UNL1        0.0000
     27 H           4.7181   -2.5017    3.2738 H       1  UNL1        0.0000
     28 C           2.7295   -2.4842    0.8175 C.3     1  UNL1        0.0000
     29 H           3.3917   -3.3069    0.5621 H       1  UNL1        0.0000
     30 H           3.2220   -1.5562    0.5452 H       1  UNL1        0.0000
     31 H           1.8405   -2.5782    0.1998 H       1  UNL1        0.0000
     32 C           1.0303   -3.9196    2.9425 C.3     1  UNL1        0.0000
     33 H           0.1163   -3.7582    2.3821 H       1  UNL1        0.0000
     34 H           0.7615   -4.0437    3.9852 H       1  UNL1        0.0000
     35 H           1.4597   -4.8549    2.6004 H       1  UNL1        0.0000
     36 C           6.4718   -0.5706    5.6095 C.3     1  UNL1        0.0000
     37 H           6.1717   -1.4019    6.2570 H       1  UNL1        0.0000
     38 H           7.3507   -0.0934    6.0476 H       1  UNL1        0.0000
     39 H           6.7232   -0.9703    4.6323 H       1  UNL1        0.0000
     40 C           4.8211    0.7664    6.7816 C.3     1  UNL1        0.0000
     41 H           4.1031    1.5670    6.6228 H       1  UNL1        0.0000
     42 H           5.6235    1.1121    7.4332 H       1  UNL1        0.0000
     43 H           4.3066   -0.0720    7.2621 H       1  UNL1        0.0000
     44 C           7.2448    1.0512    3.0575 C.3     1  UNL1        0.0000
     45 H           7.3183    1.8859    2.3533 H       1  UNL1        0.0000
     46 H           8.2208    0.5681    3.1318 H       1  UNL1        0.0000
     47 H           6.9588    1.4501    4.0256 H       1  UNL1        0.0000
     48 C           6.4173   -0.2474    1.1872 C.3     1  UNL1        0.0000
     49 H           5.7726   -1.0921    0.9551 H       1  UNL1        0.0000
     50 H           7.4577   -0.5152    1.0085 H       1  UNL1        0.0000
     51 H           6.1381    0.5876    0.5372 H       1  UNL1        0.0000
@<TRIPOS>BOND
     1    31    28    1
     2    51    48    1
     3    30    28    1
     4    29    28    1
     5    28     3    1
     6    49    48    1
     7    50    48    1
     8    48     7    1
     9     4     9    2
    10     4     1    1
    11    11    10    1
    12    45    44    1
    13    33    32    1
    14     7     9    1
    15     7    44    1
    16    35    32    1
    17     3    32    1
    18     3    10    1
    19     3    24    1
    20    32    34    1
    21     9     8    1
    22     1    10    1
    23     1     5    1
    24    44    46    1
    25    44    47    1
    26    10     2    1
    27    27    24    1
    28    14    12    1
    29    24    25    1
    30    24    26    1
    31    13    12    1
    32    12     2    1
    33    12    15    1
    34     8     5    2
    35     8     6    1
    36    17    16    1
    37    39    36    1
    38     2    16    1
    39     2    20    1
    40    16    18    1
    41    16    19    1
    42     6    36    1
    43     6    40    1
    44    36    38    1
    45    36    37    1
    46    23    20    1
    47    20    22    1
    48    20    21    1
    49    41    40    1
    50    40    43    1
    51    40    42    1
