@<TRIPOS>MOLECULE
1
 15 14 0 0 0
SMALL
GASTEIGER

@<TRIPOS>ATOM
      1 P           4.3900    7.6891   16.3368 P.3     1  UNL1        0.0000
      2 SI          3.9132    6.2669   13.2975 Si      1  UNL1        0.0000
      3 C           4.1730    7.2626   14.8456 C.3     1  UNL1        0.0000
      4 C           5.5430    6.2284   12.3186 C.3     1  UNL1        0.0000
      5 H           5.9483    7.2261   12.1820 H       1  UNL1        0.0000
      6 H           5.3971    5.7912   11.3356 H       1  UNL1        0.0000
      7 H           6.2950    5.6368   12.8319 H       1  UNL1        0.0000
      8 C           2.5010    7.1150   12.3434 C.3     1  UNL1        0.0000
      9 H           1.6169    7.2209   12.9666 H       1  UNL1        0.0000
     10 H           2.2195    6.5392   11.4671 H       1  UNL1        0.0000
     11 H           2.7848    8.1067   12.0052 H       1  UNL1        0.0000
     12 C           3.3937    4.5180   13.8469 C.3     1  UNL1        0.0000
     13 H           4.1686    4.0441   14.4415 H       1  UNL1        0.0000
     14 H           3.2027    3.8812   12.9889 H       1  UNL1        0.0000
     15 H           2.4883    4.5479   14.4452 H       1  UNL1        0.0000
@<TRIPOS>BOND
     1     6     4    1
     2    10     8    1
     3    11     8    1
     4     5     4    1
     5     4     7    1
     6     4     2    1
     7     8     9    1
     8     8     2    1
     9    14    12    1
    10     2    12    1
    11     2     3    1
    12    12    13    1
    13    12    15    1
    14     3     1    1
