@<TRIPOS>MOLECULE
1
 53 54 0 0 0
SMALL
GASTEIGER

@<TRIPOS>ATOM
      1 P           6.4436    2.6659    2.5890 P.3     1  UNL1        0.0000
      2 C           7.9959    3.4067    3.2369 C.3     1  UNL1        0.0000
      3 N           8.8009    2.4670    3.6144 N.2     1  UNL1        0.3300
      4 C           8.2816    1.2275    3.2744 C.cat   1  UNL1        0.0000
      5 N           7.1096    1.1514    2.6865 N.pl3   1  UNL1        0.3300
      6 C           6.2062    2.9358    0.7993 C.3     1  UNL1        0.0000
      7 H           5.5518    3.8100    0.7310 H       1  UNL1        0.0000
      8 SI          7.8246    3.3019   -0.1830 Si      1  UNL1        0.0000
      9 C           7.3887    3.2858   -2.0429 C.3     1  UNL1        0.0000
     10 H           6.9908    2.3378   -2.3840 H       1  UNL1        0.0000
     11 H           8.2760    3.4998   -2.6296 H       1  UNL1        0.0000
     12 H           6.6570    4.0522   -2.2773 H       1  UNL1        0.0000
     13 C           8.5217    5.0575    0.1167 C.3     1  UNL1        0.0000
     14 H           9.0428    5.1466    1.0640 H       1  UNL1        0.0000
     15 H           7.7489    5.8196    0.0909 H       1  UNL1        0.0000
     16 H           9.2338    5.2973   -0.6676 H       1  UNL1        0.0000
     17 C           9.2157    2.0524    0.1881 C.3     1  UNL1        0.0000
     18 H           9.7572    2.3333    1.0868 H       1  UNL1        0.0000
     19 H           9.9315    2.0193   -0.6278 H       1  UNL1        0.0000
     20 H           8.8336    1.0494    0.3381 H       1  UNL1        0.0000
     21 SI          5.1783    1.4067    0.1914 Si      1  UNL1        0.0000
     22 C           4.1419    0.5332    1.5262 C.3     1  UNL1        0.0000
     23 H           3.3197    1.1380    1.8932 H       1  UNL1        0.0000
     24 H           4.7729    0.2729    2.3692 H       1  UNL1        0.0000
     25 H           3.7166   -0.3864    1.1335 H       1  UNL1        0.0000
     26 C           3.9873    2.0763   -1.1414 C.3     1  UNL1        0.0000
     27 H           3.2720    2.7756   -0.7197 H       1  UNL1        0.0000
     28 H           3.4235    1.2604   -1.5790 H       1  UNL1        0.0000
     29 H           4.5094    2.5825   -1.9447 H       1  UNL1        0.0000
     30 C           6.3107    0.0393   -0.5115 C.3     1  UNL1        0.0000
     31 H           6.9862    0.3926   -1.2814 H       1  UNL1        0.0000
     32 H           5.7054   -0.7516   -0.9434 H       1  UNL1        0.0000
     33 H           6.9065   -0.4002    0.2818 H       1  UNL1        0.0000
     34 N           9.0003    0.1441    3.5767 N.pl3   1  UNL1        0.3300
     35 C           8.4968   -1.1750    3.2954 C.3     1  UNL1        0.0000
     36 H           7.4732   -1.0878    2.9391 H       1  UNL1        0.0000
     37 H           8.5172   -1.7825    4.2031 H       1  UNL1        0.0000
     38 H           9.1093   -1.6634    2.5320 H       1  UNL1        0.0000
     39 C          10.3004    0.2312    4.1883 C.3     1  UNL1        0.0000
     40 H          11.0557   -0.2097    3.5318 H       1  UNL1        0.0000
     41 H          10.3044   -0.3084    5.1388 H       1  UNL1        0.0000
     42 H          10.5356    1.2771    4.3634 H       1  UNL1        0.0000
     43 C           8.2154    4.7991    3.5563 C.ar    1  UNL1        0.0000
     44 C           7.3765    5.7732    3.0151 C.ar    1  UNL1        0.0000
     45 H           6.5855    5.4678    2.3423 H       1  UNL1        0.0000
     46 C           7.5685    7.1055    3.3203 C.ar    1  UNL1        0.0000
     47 H           6.9142    7.8552    2.9014 H       1  UNL1        0.0000
     48 C           8.5961    7.4788    4.1734 C.ar    1  UNL1        0.0000
     49 H           8.7403    8.5205    4.4184 H       1  UNL1        0.0000
     50 C           9.4369    6.5176    4.7135 C.ar    1  UNL1        0.0000
     51 H          10.2356    6.8121    5.3781 H       1  UNL1        0.0000
     52 C           9.2531    5.1836    4.4076 C.ar    1  UNL1        0.0000
     53 H           9.8924    4.4203    4.8229 H       1  UNL1        0.0000
@<TRIPOS>BOND
     1    11     9    1
     2    10     9    1
     3    12     9    1
     4     9     8    1
     5    29    26    1
     6    28    26    1
     7    31    30    1
     8    26    27    1
     9    26    21    1
    10    32    30    1
    11    16    13    1
    12    19    17    1
    13    30    21    1
    14    30    33    1
    15     8    13    1
    16     8    17    1
    17     8     6    1
    18    15    13    1
    19    13    14    1
    20    17    20    1
    21    17    18    1
    22    21     6    1
    23    21    22    1
    24     7     6    1
    25     6     1    1
    26    25    22    1
    27    22    23    1
    28    22    24    1
    29    45    44    1
    30    38    35    1
    31     1     5    1
    32     1     2    1
    33     5     4    1
    34    47    46    1
    35    36    35    1
    36    44    46   ar
    37    44    43   ar
    38     2    43    1
    39     2     3    1
    40     4    34    1
    41     4     3    2
    42    35    34    1
    43    35    37    1
    44    46    48   ar
    45    40    39    1
    46    43    52   ar
    47    34    39    1
    48    48    49    1
    49    48    50   ar
    50    39    42    1
    51    39    41    1
    52    52    50   ar
    53    52    53    1
    54    50    51    1
