@<TRIPOS>MOLECULE
1
 40 41 0 0 0
SMALL
GASTEIGER

@<TRIPOS>ATOM
      1 P           5.4067    4.1432    2.9948 P.3     1  UNL1        0.0000
      2 P           5.8760    6.1995    3.3172 P.3     1  UNL1        0.0000
      3 SI          5.9527    4.2070    6.1693 Si      1  UNL1        0.0000
      4 C           6.4531    4.7829    4.4045 C.3     1  UNL1        0.0000
      5 C           7.9303    4.6446    4.2855 C.ar    1  UNL1        0.0000
      6 C           8.7615    5.7326    4.5260 C.ar    1  UNL1        0.0000
      7 H           8.3153    6.6855    4.7767 H       1  UNL1        0.0000
      8 C          10.1346    5.6077    4.4311 C.ar    1  UNL1        0.0000
      9 H          10.7653    6.4662    4.6099 H       1  UNL1        0.0000
     10 C          10.7025    4.3884    4.1009 C.ar    1  UNL1        0.0000
     11 H          11.7751    4.2925    4.0204 H       1  UNL1        0.0000
     12 C           9.8861    3.2945    3.8708 C.ar    1  UNL1        0.0000
     13 H          10.3218    2.3387    3.6160 H       1  UNL1        0.0000
     14 C           8.5125    3.4223    3.9611 C.ar    1  UNL1        0.0000
     15 H           7.8712    2.5694    3.7902 H       1  UNL1        0.0000
     16 C           6.7358    2.4880    6.4579 C.3     1  UNL1        0.0000
     17 H           7.8174    2.5187    6.3793 H       1  UNL1        0.0000
     18 H           6.3698    1.7546    5.7457 H       1  UNL1        0.0000
     19 H           6.4893    2.1269    7.4517 H       1  UNL1        0.0000
     20 C           6.7178    5.4028    7.4449 C.3     1  UNL1        0.0000
     21 H           6.4482    6.4393    7.2748 H       1  UNL1        0.0000
     22 H           7.8013    5.3389    7.4155 H       1  UNL1        0.0000
     23 H           6.4001    5.1391    8.4484 H       1  UNL1        0.0000
     24 C           4.0850    3.9323    6.4498 C.3     1  UNL1        0.0000
     25 H           3.5322    4.8473    6.6301 H       1  UNL1        0.0000
     26 H           3.9462    3.2975    7.3196 H       1  UNL1        0.0000
     27 H           3.6344    3.4255    5.6011 H       1  UNL1        0.0000
     28 C           4.2894    7.0725    3.9204 C.3     1  UNL1        0.0000
     29 C           4.1856    8.2545    2.9491 C.3     1  UNL1        0.0000
     30 H           5.0574    8.9017    3.0359 H       1  UNL1        0.0000
     31 H           3.2945    8.8444    3.1589 H       1  UNL1        0.0000
     32 H           4.1296    7.8973    1.9211 H       1  UNL1        0.0000
     33 C           4.4650    7.5996    5.3400 C.3     1  UNL1        0.0000
     34 H           4.4912    6.7839    6.0562 H       1  UNL1        0.0000
     35 H           3.6389    8.2620    5.5986 H       1  UNL1        0.0000
     36 H           5.3930    8.1645    5.4216 H       1  UNL1        0.0000
     37 C           3.0391    6.2135    3.7945 C.3     1  UNL1        0.0000
     38 H           3.1168    5.3179    4.4032 H       1  UNL1        0.0000
     39 H           2.8949    5.9107    2.7584 H       1  UNL1        0.0000
     40 H           2.1642    6.7800    4.1140 H       1  UNL1        0.0000
@<TRIPOS>BOND
     1    32    29    1
     2    39    37    1
     3    29    30    1
     4    29    31    1
     5    29    28    1
     6     1     2    1
     7     1     4    1
     8     2    28    1
     9     2     4    1
    10    13    12    1
    11    15    14    1
    12    37    28    1
    13    37    40    1
    14    37    38    1
    15    12    14   ar
    16    12    10   ar
    17    28    33    1
    18    14     5   ar
    19    11    10    1
    20    10     8   ar
    21     5     4    1
    22     5     6   ar
    23     4     3    1
    24     8     6   ar
    25     8     9    1
    26     6     7    1
    27    33    36    1
    28    33    35    1
    29    33    34    1
    30    27    24    1
    31    18    16    1
    32     3    24    1
    33     3    16    1
    34     3    20    1
    35    17    16    1
    36    24    25    1
    37    24    26    1
    38    16    19    1
    39    21    20    1
    40    22    20    1
    41    20    23    1
