@<TRIPOS>MOLECULE
1
 22 21 0 0 0
SMALL
GASTEIGER

@<TRIPOS>ATOM
      1 P           2.5547   12.9072    8.9834 P.3     1  UNL1       -0.1067
      2 C           3.7418   13.6878    7.7984 C.3     1  UNL1       -0.0351
      3 C           5.0631   14.0721    8.4478 C.3     1  UNL1       -0.0613
      4 C           1.0377   12.9605    7.9267 C.3     1  UNL1       -0.0351
      5 C          -0.2226   12.5932    8.6984 C.3     1  UNL1       -0.0613
      6 C           2.2582   14.2406   10.2253 C.3     1  UNL1       -0.0351
      7 C           1.8955   15.6198    9.6895 C.3     1  UNL1       -0.0613
      8 H           3.9170   12.9551    7.0054 H       1  UNL1        0.0310
      9 H           3.2651   14.5636    7.3471 H       1  UNL1        0.0310
     10 H           5.7468   14.4809    7.7049 H       1  UNL1        0.0233
     11 H           5.5251   13.1985    8.8969 H       1  UNL1        0.0233
     12 H           4.9157   14.8213    9.2223 H       1  UNL1        0.0233
     13 H           0.9510   13.9589    7.4859 H       1  UNL1        0.0310
     14 H           1.2068   12.2502    7.1100 H       1  UNL1        0.0310
     15 H          -1.0754   12.5148    8.0244 H       1  UNL1        0.0233
     16 H          -0.4484   13.3433    9.4521 H       1  UNL1        0.0233
     17 H          -0.0847   11.6433    9.2085 H       1  UNL1        0.0233
     18 H           1.4693   13.8636   10.8815 H       1  UNL1        0.0310
     19 H           3.1679   14.2923   10.8316 H       1  UNL1        0.0310
     20 H           1.7501   16.3024   10.5250 H       1  UNL1        0.0233
     21 H           0.9708   15.5923    9.1184 H       1  UNL1        0.0233
     22 H           2.6824   16.0269    9.0587 H       1  UNL1        0.0233
@<TRIPOS>BOND
     1     8     2    1
     2    14     4    1
     3     9     2    1
     4    13     4    1
     5    10     3    1
     6     2     3    1
     7     2     1    1
     8     4     5    1
     9     4     1    1
    10    15     5    1
    11     3    11    1
    12     3    12    1
    13     5    17    1
    14     5    16    1
    15     1     6    1
    16    22     7    1
    17    21     7    1
    18     7     6    1
    19     7    20    1
    20     6    19    1
    21     6    18    1
