@<TRIPOS>MOLECULE
1
 22 21 0 0 0
SMALL
GASTEIGER

@<TRIPOS>ATOM
      1 P           3.5377    9.0676   10.8194 P.3     1  UNL1       -0.1067
      2 C           5.1402    8.2376   10.4121 C.3     1  UNL1       -0.0351
      3 C           6.3556    9.0296   10.8717 C.3     1  UNL1       -0.0613
      4 C           2.3993    7.6560   10.4559 C.3     1  UNL1       -0.0351
      5 C           0.9734    7.9246   10.9184 C.3     1  UNL1       -0.0613
      6 C           3.5550    9.1395   12.6639 C.3     1  UNL1       -0.0351
      7 C           3.8763    7.8484   13.4058 C.3     1  UNL1       -0.0613
      8 H           5.1416    7.2378   10.8573 H       1  UNL1        0.0310
      9 H           5.1627    8.1207    9.3248 H       1  UNL1        0.0310
     10 H           7.2731    8.5250   10.5711 H       1  UNL1        0.0233
     11 H           6.3664    9.1378   11.9537 H       1  UNL1        0.0233
     12 H           6.3455   10.0195   10.4264 H       1  UNL1        0.0233
     13 H           2.4281    7.5096    9.3706 H       1  UNL1        0.0310
     14 H           2.7998    6.7511   10.9240 H       1  UNL1        0.0310
     15 H           0.3055    7.1327   10.5803 H       1  UNL1        0.0233
     16 H           0.6254    8.8755   10.5231 H       1  UNL1        0.0233
     17 H           0.9210    7.9782   12.0030 H       1  UNL1        0.0233
     18 H           4.2745    9.9214   12.9263 H       1  UNL1        0.0310
     19 H           2.5700    9.5148   12.9542 H       1  UNL1        0.0310
     20 H           3.8490    8.0344   14.4781 H       1  UNL1        0.0233
     21 H           4.8675    7.4764   13.1566 H       1  UNL1        0.0233
     22 H           3.1477    7.0725   13.1847 H       1  UNL1        0.0233
@<TRIPOS>BOND
     1     9     2    1
     2    13     4    1
     3     2     1    1
     4     2     8    1
     5     2     3    1
     6    12     3    1
     7     4     1    1
     8     4     5    1
     9     4    14    1
    10    16     5    1
    11    10     3    1
    12    15     5    1
    13     1     6    1
    14     3    11    1
    15     5    17    1
    16     6    18    1
    17     6    19    1
    18     6     7    1
    19    21     7    1
    20    22     7    1
    21     7    20    1
