@<TRIPOS>MOLECULE
1
 13 12 0 0 0
SMALL
GASTEIGER

@<TRIPOS>ATOM
      1 P           3.8973    5.9288    1.7877 P.3     1  UNL1       -0.1154
      2 C           4.2642    6.6736    3.4276 C.3     1  UNL1       -0.0447
      3 H           3.4045    6.6191    4.0910 H       1  UNL1        0.0277
      4 H           4.5429    7.7181    3.2856 H       1  UNL1        0.0277
      5 H           5.0955    6.1295    3.8730 H       1  UNL1        0.0277
      6 C           5.4281    6.4455    0.9292 C.3     1  UNL1       -0.0447
      7 H           5.6238    7.5013    1.1184 H       1  UNL1        0.0277
      8 H           5.3321    6.2790   -0.1407 H       1  UNL1        0.0277
      9 H           6.2500    5.8426    1.3143 H       1  UNL1        0.0277
     10 C           2.7041    7.1701    1.1467 C.3     1  UNL1       -0.0447
     11 H           1.7582    7.0822    1.6767 H       1  UNL1        0.0277
     12 H           2.5291    6.9915    0.0888 H       1  UNL1        0.0277
     13 H           3.1058    8.1730    1.2860 H       1  UNL1        0.0277
@<TRIPOS>BOND
     1     8     6    1
     2    12    10    1
     3     6     7    1
     4     6     9    1
     5     6     1    1
     6    10    13    1
     7    10    11    1
     8    10     1    1
     9     1     2    1
    10     4     2    1
    11     2     5    1
    12     2     3    1
