@<TRIPOS>MOLECULE
1
 13 12 0 0 0
SMALL
GASTEIGER

@<TRIPOS>ATOM
      1 P           3.8974    1.3918    1.7877 P.3     1  UNL1       -0.1154
      2 C           4.2642    0.6469    3.4276 C.3     1  UNL1       -0.0447
      3 C           5.4281    0.8750    0.9292 C.3     1  UNL1       -0.0447
      4 C           2.7041    0.1505    1.1466 C.3     1  UNL1       -0.0447
      5 H           3.4045    0.7015    4.0910 H       1  UNL1        0.0277
      6 H           4.5429   -0.3975    3.2856 H       1  UNL1        0.0277
      7 H           5.0955    1.1911    3.8730 H       1  UNL1        0.0277
      8 H           5.6238   -0.1807    1.1184 H       1  UNL1        0.0277
      9 H           5.3321    1.0415   -0.1407 H       1  UNL1        0.0277
     10 H           6.2500    1.4780    1.3143 H       1  UNL1        0.0277
     11 H           1.7582    0.2384    1.6767 H       1  UNL1        0.0277
     12 H           2.5290    0.3291    0.0888 H       1  UNL1        0.0277
     13 H           3.1058   -0.8525    1.2860 H       1  UNL1        0.0277
@<TRIPOS>BOND
     1     9     3    1
     2    12     4    1
     3     3     8    1
     4     3    10    1
     5     3     1    1
     6     4    13    1
     7     4    11    1
     8     4     1    1
     9     1     2    1
    10     6     2    1
    11     2     7    1
    12     2     5    1
