@<TRIPOS>MOLECULE
1
 13 12 0 0 0
SMALL
GASTEIGER

@<TRIPOS>ATOM
      1 P           2.0954    3.6603    3.5849 P.3     1  UNL1       -0.1154
      2 C           2.9409    3.6603    5.2138 C.3     1  UNL1       -0.0447
      3 C           0.9026    2.2873    3.8628 C.3     1  UNL1       -0.0447
      4 H           3.5803    4.5367    5.2911 H       1  UNL1        0.0277
      5 H           2.2066    3.6603    6.0199 H       1  UNL1        0.0277
      6 H           0.4124    2.4160    4.8278 H       1  UNL1        0.0277
      7 H           0.1543    2.3098    3.0728 H       1  UNL1        0.0277
      8 H           1.4034    1.3227    3.8418 H       1  UNL1        0.0277
      9 H           3.5804    2.7838    5.2911 H       1  UNL1        0.0277
     10 C           0.9026    5.0332    3.8628 C.3     1  UNL1       -0.0447
     11 H           0.4124    4.9045    4.8278 H       1  UNL1        0.0277
     12 H           0.1543    5.0107    3.0728 H       1  UNL1        0.0277
     13 H           1.4033    5.9979    3.8418 H       1  UNL1        0.0277
@<TRIPOS>BOND
     1     7     3    1
     2    12    10    1
     3     1     3    1
     4     1    10    1
     5     1     2    1
     6    13    10    1
     7     8     3    1
     8     3     6    1
     9    10    11    1
    10     2     9    1
    11     2     4    1
    12     2     5    1
