@<TRIPOS>MOLECULE
1
 50 51 0 0 0
SMALL
GASTEIGER

@<TRIPOS>ATOM
      1 P           5.9469    7.2501    8.7952 P.3     1  UNL1        0.0000
      2 S           9.2946    9.9444    7.4481 S.2     1  UNL1        0.0000
      3 SI          4.2164    6.0767   10.9236 Si      1  UNL1        0.0000
      4 SI          6.3939    8.3890   11.7188 Si      1  UNL1        0.0000
      5 N           6.2831    9.6614    7.9288 N.2     1  UNL1        0.3300
      6 N           4.5933    8.1678    8.5368 N.pl3   1  UNL1        0.3300
      7 N           4.0459   10.2390    7.6443 N.pl3   1  UNL1        0.3300
      8 C           7.0157    8.6913    8.3781 C.3     1  UNL1        0.0000
      9 C           4.9426    9.3376    8.0471 C.cat   1  UNL1        0.0000
     10 C           5.9416    6.8963   10.5846 C.3     1  UNL1        0.0000
     11 H           6.6993    6.1180   10.7155 H       1  UNL1        0.0000
     12 C           3.4063    5.2462    9.4166 C.3     1  UNL1        0.0000
     13 H           3.9694    4.3984    9.0405 H       1  UNL1        0.0000
     14 H           3.3062    5.9691    8.6140 H       1  UNL1        0.0000
     15 H           2.4113    4.8888    9.6675 H       1  UNL1        0.0000
     16 C           4.5178    4.7387   12.2505 C.3     1  UNL1        0.0000
     17 H           4.9946    5.1368   13.1384 H       1  UNL1        0.0000
     18 H           5.1438    3.9376   11.8701 H       1  UNL1        0.0000
     19 H           3.5751    4.2975   12.5536 H       1  UNL1        0.0000
     20 C           2.9358    7.3695   11.5013 C.3     1  UNL1        0.0000
     21 H           2.0034    6.8747   11.7552 H       1  UNL1        0.0000
     22 H           2.7263    8.0723   10.7014 H       1  UNL1        0.0000
     23 H           3.2537    7.9347   12.3693 H       1  UNL1        0.0000
     24 C           6.0426    7.8740   13.5245 C.3     1  UNL1        0.0000
     25 H           6.6621    7.0319   13.8157 H       1  UNL1        0.0000
     26 H           5.0102    7.5977   13.7008 H       1  UNL1        0.0000
     27 H           6.2820    8.6942   14.1932 H       1  UNL1        0.0000
     28 C           8.2605    8.8073   11.7132 C.3     1  UNL1        0.0000
     29 H           8.4981    9.3947   12.5953 H       1  UNL1        0.0000
     30 H           8.5551    9.3914   10.8483 H       1  UNL1        0.0000
     31 H           8.8844    7.9194   11.7426 H       1  UNL1        0.0000
     32 C           5.4370    9.9781   11.2821 C.3     1  UNL1        0.0000
     33 H           5.4383   10.6693   12.1199 H       1  UNL1        0.0000
     34 H           4.4056    9.7744   11.0189 H       1  UNL1        0.0000
     35 H           5.8949   10.4868   10.4388 H       1  UNL1        0.0000
     36 C           4.4325   11.5284    7.1332 C.3     1  UNL1        0.0000
     37 H           5.5173   11.5804    7.0972 H       1  UNL1        0.0000
     38 H           4.0480   12.3213    7.7806 H       1  UNL1        0.0000
     39 H           4.0262   11.6682    6.1284 H       1  UNL1        0.0000
     40 C           2.6358    9.9555    7.7070 C.3     1  UNL1        0.0000
     41 H           2.5020    8.9249    8.0264 H       1  UNL1        0.0000
     42 H           2.1833   10.0942    6.7224 H       1  UNL1        0.0000
     43 H           2.1436   10.6258    8.4171 H       1  UNL1        0.0000
     44 C           8.4316    8.6936    8.2960 C.ar    1  UNL1        0.0000
     45 C           9.2985    7.7695    8.8300 C.ar    1  UNL1        0.0000
     46 H           8.9598    6.9275    9.4092 H       1  UNL1        0.0000
     47 C          10.6424    8.0597    8.5590 C.ar    1  UNL1        0.0000
     48 H          11.4657    7.4514    8.8868 H       1  UNL1        0.0000
     49 C          10.7891    9.1993    7.8233 C.ar    1  UNL1        0.0000
     50 H          11.7013    9.6437    7.4768 H       1  UNL1        0.0000
@<TRIPOS>BOND
     1    39    36    1
     2    42    40    1
     3    37    36    1
     4    36     7    1
     5    36    38    1
     6     2    49   ar
     7     2    44   ar
     8    50    49    1
     9     7    40    1
    10     7     9    1
    11    40    41    1
    12    40    43    1
    13    49    47   ar
    14     5     9    2
    15     5     8    1
    16     9     6    1
    17    44     8    1
    18    44    45   ar
    19     8     1    1
    20     6     1    1
    21    47    45   ar
    22    47    48    1
    23    14    12    1
    24     1    10    1
    25    45    46    1
    26    13    12    1
    27    12    15    1
    28    12     3    1
    29    35    32    1
    30    10    11    1
    31    10     3    1
    32    10     4    1
    33    22    20    1
    34    30    28    1
    35     3    20    1
    36     3    16    1
    37    34    32    1
    38    32     4    1
    39    32    33    1
    40    20    21    1
    41    20    23    1
    42    28     4    1
    43    28    31    1
    44    28    29    1
    45     4    24    1
    46    18    16    1
    47    16    19    1
    48    16    17    1
    49    24    26    1
    50    24    25    1
    51    24    27    1
