@<TRIPOS>MOLECULE
1
 31 30 0 0 0
SMALL
GASTEIGER

@<TRIPOS>ATOM
      1 P          10.1504    3.6333    9.7639 P.3     1  UNL1       -0.0980
      2 C          11.5048    4.0610    8.5387 C.3     1  UNL1       -0.0257
      3 C          12.0765    5.4458    8.8253 C.3     1  UNL1       -0.0587
      4 C          10.9809    4.0343    7.1065 C.3     1  UNL1       -0.0587
      5 C           9.6973    1.9045    9.1626 C.3     1  UNL1       -0.0257
      6 C           8.5075    1.3103    9.9118 C.3     1  UNL1       -0.0587
      7 C          11.1274    3.4532   11.3708 C.3     1  UNL1       -0.0257
      8 C          10.3723    2.5906   12.3797 C.3     1  UNL1       -0.0587
      9 C          10.8309    0.8858    9.0985 C.3     1  UNL1       -0.0587
     10 C          12.5801    2.9913   11.2823 C.3     1  UNL1       -0.0587
     11 H          12.2971    3.3140    8.6536 H       1  UNL1        0.0344
     12 H          12.9669    5.6104    8.2201 H       1  UNL1        0.0236
     13 H          12.3412    5.5671    9.8720 H       1  UNL1        0.0236
     14 H          11.3332    6.1976    8.5690 H       1  UNL1        0.0236
     15 H          10.0815    4.6435    7.0463 H       1  UNL1        0.0236
     16 H          10.7568    3.0261    6.7687 H       1  UNL1        0.0236
     17 H          11.7302    4.4524    6.4369 H       1  UNL1        0.0236
     18 H           9.3651    2.1169    8.1397 H       1  UNL1        0.0344
     19 H           8.0619    0.5087    9.3232 H       1  UNL1        0.0236
     20 H           7.7474    2.0667   10.0837 H       1  UNL1        0.0236
     21 H           8.8042    0.8936   10.8700 H       1  UNL1        0.0236
     22 H          11.1245    4.4838   11.7499 H       1  UNL1        0.0344
     23 H          10.5402    1.5325   12.1923 H       1  UNL1        0.0236
     24 H           9.3047    2.7882   12.3360 H       1  UNL1        0.0236
     25 H          10.7187    2.8100   13.3893 H       1  UNL1        0.0236
     26 H          11.1451    0.5844   10.0941 H       1  UNL1        0.0236
     27 H          11.6907    1.2654    8.5549 H       1  UNL1        0.0236
     28 H          10.4765   -0.0061    8.5818 H       1  UNL1        0.0236
     29 H          12.9937    2.9682   12.2904 H       1  UNL1        0.0236
     30 H          13.1871    3.6702   10.6924 H       1  UNL1        0.0236
     31 H          12.6659    1.9931   10.8640 H       1  UNL1        0.0236
@<TRIPOS>BOND
     1    17     4    1
     2    16     4    1
     3    15     4    1
     4     4     2    1
     5    18     5    1
     6    12     3    1
     7     2    11    1
     8     2     3    1
     9     2     1    1
    10    27     9    1
    11    14     3    1
    12    28     9    1
    13     3    13    1
    14     9     5    1
    15     9    26    1
    16     5     1    1
    17     5     6    1
    18    19     6    1
    19     1     7    1
    20     6    20    1
    21     6    21    1
    22    30    10    1
    23    31    10    1
    24    10     7    1
    25    10    29    1
    26     7    22    1
    27     7     8    1
    28    23     8    1
    29    24     8    1
    30     8    25    1
