@<TRIPOS>MOLECULE
1
 31 30 0 0 0
SMALL
GASTEIGER

@<TRIPOS>ATOM
      1 P          -1.6123    4.6878   10.1866 P.3     1  UNL1       -0.0980
      2 C          -2.2311    4.0881    8.5166 C.3     1  UNL1       -0.0257
      3 C          -1.1557    3.2788    7.8003 C.3     1  UNL1       -0.0587
      4 C          -2.7959    5.1379    7.5614 C.3     1  UNL1       -0.0587
      5 C          -3.0648    5.7114   10.8019 C.3     1  UNL1       -0.0257
      6 C          -2.8883    6.2590   12.2174 C.3     1  UNL1       -0.0587
      7 C          -4.4321    5.0374   10.6944 C.3     1  UNL1       -0.0587
      8 C          -1.5262    3.0632   11.1366 C.3     1  UNL1       -0.0257
      9 C          -1.4591    3.2999   12.6446 C.3     1  UNL1       -0.0587
     10 C          -2.5955    2.0143   10.8285 C.3     1  UNL1       -0.0587
     11 H          -3.0509    3.4150    8.7859 H       1  UNL1        0.0344
     12 H          -1.5645    2.8551    6.8849 H       1  UNL1        0.0236
     13 H          -0.7924    2.4588    8.4151 H       1  UNL1        0.0236
     14 H          -0.3179    3.9166    7.5275 H       1  UNL1        0.0236
     15 H          -2.0056    5.6600    7.0316 H       1  UNL1        0.0236
     16 H          -3.4288    5.8659    8.0604 H       1  UNL1        0.0236
     17 H          -3.4050    4.6322    6.8135 H       1  UNL1        0.0236
     18 H          -3.0471    6.5684   10.1138 H       1  UNL1        0.0344
     19 H          -3.5417    7.1185   12.3529 H       1  UNL1        0.0236
     20 H          -1.8645    6.5687   12.4051 H       1  UNL1        0.0236
     21 H          -3.1623    5.5170   12.9595 H       1  UNL1        0.0236
     22 H          -4.5341    4.2493   11.4343 H       1  UNL1        0.0236
     23 H          -4.6279    4.6274    9.7087 H       1  UNL1        0.0236
     24 H          -5.2016    5.7789   10.9026 H       1  UNL1        0.0236
     25 H          -0.5615    2.6502   10.8186 H       1  UNL1        0.0344
     26 H          -2.4516    3.4722   13.0492 H       1  UNL1        0.0236
     27 H          -0.8251    4.1484   12.8925 H       1  UNL1        0.0236
     28 H          -1.0528    2.4191   13.1376 H       1  UNL1        0.0236
     29 H          -2.4458    1.1733   11.5038 H       1  UNL1        0.0236
     30 H          -2.5225    1.6291    9.8155 H       1  UNL1        0.0236
     31 H          -3.5998    2.3903   10.9922 H       1  UNL1        0.0236
@<TRIPOS>BOND
     1    17     4    1
     2    12     3    1
     3    15     4    1
     4    14     3    1
     5     4    16    1
     6     4     2    1
     7     3    13    1
     8     3     2    1
     9     2    11    1
    10     2     1    1
    11    23     7    1
    12    30    10    1
    13    18     5    1
    14     1     5    1
    15     1     8    1
    16     7     5    1
    17     7    24    1
    18     7    22    1
    19     5     6    1
    20    25     8    1
    21    10    31    1
    22    10     8    1
    23    10    29    1
    24     8     9    1
    25     6    19    1
    26     6    20    1
    27     6    21    1
    28     9    27    1
    29     9    26    1
    30     9    28    1
