@<TRIPOS>MOLECULE
1
 55 55 0 0 0
SMALL
GASTEIGER

@<TRIPOS>ATOM
      1 P           1.5711    2.1632    3.5006 P.3     1  UNL1        0.0000
      2 N           2.5421    0.2041    0.4408 N.pl3   1  UNL1        0.0000
      3 SI          4.1150    1.1862    5.1250 Si      1  UNL1        0.0000
      4 SI          0.9749    0.6313    6.0496 Si      1  UNL1        0.0000
      5 O           3.4969    4.1821    2.4138 O.3     1  UNL1        0.0000
      6 O           4.7110    2.8990    1.0143 O.2     1  UNL1        0.0000
      7 O           0.7372   -0.4972    2.8813 O.2     1  UNL1        0.0000
      8 C           2.2731    1.7506    5.1269 C.3     1  UNL1        0.0000
      9 H           2.2483    2.7101    5.6571 H       1  UNL1        0.0000
     10 C           1.4473   -1.2141    5.9481 C.3     1  UNL1        0.0000
     11 H           2.4935   -1.3979    6.1637 H       1  UNL1        0.0000
     12 H           1.2305   -1.6162    4.9640 H       1  UNL1        0.0000
     13 H           0.8594   -1.7793    6.6640 H       1  UNL1        0.0000
     14 C           0.9852    1.2221    7.8634 C.3     1  UNL1        0.0000
     15 H           0.3105    0.6185    8.4606 H       1  UNL1        0.0000
     16 H           0.6591    2.2540    7.9483 H       1  UNL1        0.0000
     17 H           1.9708    1.1504    8.3092 H       1  UNL1        0.0000
     18 C          -0.8013    0.7961    5.3792 C.3     1  UNL1        0.0000
     19 H          -1.4405    0.0433    5.8325 H       1  UNL1        0.0000
     20 H          -0.8363    0.6407    4.3054 H       1  UNL1        0.0000
     21 H          -1.2425    1.7648    5.5912 H       1  UNL1        0.0000
     22 C           4.5927    0.7197    6.9133 C.3     1  UNL1        0.0000
     23 H           5.6329    0.4120    6.9523 H       1  UNL1        0.0000
     24 H           3.9955   -0.0931    7.3100 H       1  UNL1        0.0000
     25 H           4.4815    1.5669    7.5824 H       1  UNL1        0.0000
     26 C           4.3990   -0.3056    3.9672 C.3     1  UNL1        0.0000
     27 H           4.7240    0.0170    2.9827 H       1  UNL1        0.0000
     28 H           3.4958   -0.8936    3.8423 H       1  UNL1        0.0000
     29 H           5.1665   -0.9626    4.3643 H       1  UNL1        0.0000
     30 C           5.2407    2.6502    4.6371 C.3     1  UNL1        0.0000
     31 H           5.5839    2.5692    3.6106 H       1  UNL1        0.0000
     32 H           6.1231    2.6887    5.2687 H       1  UNL1        0.0000
     33 H           4.7227    3.5993    4.7387 H       1  UNL1        0.0000
     34 C           2.7999    2.0297    2.1487 C.2     1  UNL1        0.0000
     35 C           3.7677    3.0276    1.7682 C.2     1  UNL1        0.0000
     36 C           4.3763    5.2615    2.1368 C.3     1  UNL1        0.0000
     37 H           5.4132    4.9206    2.1712 H       1  UNL1        0.0000
     38 H           4.1951    6.0172    2.8964 H       1  UNL1        0.0000
     39 H           4.1698    5.6676    1.1439 H       1  UNL1        0.0000
     40 C           2.3218    0.8576    1.5750 C.2     1  UNL1        0.0000
     41 C           3.3956    0.7366   -0.6034 C.3     1  UNL1        0.0000
     42 H           3.8295   -0.1040   -1.1495 H       1  UNL1        0.0000
     43 H           4.2001    1.3187   -0.1500 H       1  UNL1        0.0000
     44 C           2.6042    1.6320   -1.5542 C.3     1  UNL1        0.0000
     45 H           1.7880    1.0846   -2.0219 H       1  UNL1        0.0000
     46 H           3.2614    2.0102   -2.3316 H       1  UNL1        0.0000
     47 H           2.1890    2.4787   -1.0138 H       1  UNL1        0.0000
     48 C           1.8813   -1.0594    0.1712 C.3     1  UNL1        0.0000
     49 H           1.7261   -1.1365   -0.9073 H       1  UNL1        0.0000
     50 H           0.9076   -1.0773    0.6627 H       1  UNL1        0.0000
     51 C           2.7191   -2.2362    0.6664 C.3     1  UNL1        0.0000
     52 H           3.7128   -2.2169    0.2246 H       1  UNL1        0.0000
     53 H           2.2355   -3.1713    0.3983 H       1  UNL1        0.0000
     54 H           2.8183   -2.1954    1.7477 H       1  UNL1        0.0000
     55 C           1.3411    0.5144    2.6415 C.2     1  UNL1        0.0000
@<TRIPOS>BOND
     1    46    44    1
     2    45    44    1
     3    44    47    1
     4    44    41    1
     5    42    41    1
     6    49    48    1
     7    41    43    1
     8    41     2    1
     9    48     2    1
    10    48    50    1
    11    48    51    1
    12    52    51    1
    13    53    51    1
    14     2    40    1
    15    51    54    1
    16     6    35    2
    17    39    36    1
    18    40    34    2
    19    40    55    1
    20    35    34    1
    21    35     5    1
    22    36    37    1
    23    36     5    1
    24    36    38    1
    25    34     1    1
    26    55     7    2
    27    55     1    1
    28    27    26    1
    29     1     8    1
    30    31    30    1
    31    28    26    1
    32    26    29    1
    33    26     3    1
    34    20    18    1
    35    30    33    1
    36    30     3    1
    37    30    32    1
    38    12    10    1
    39     3     8    1
    40     3    22    1
    41     8     9    1
    42     8     4    1
    43    18    21    1
    44    18    19    1
    45    18     4    1
    46    10     4    1
    47    10    11    1
    48    10    13    1
    49     4    14    1
    50    22    23    1
    51    22    24    1
    52    22    25    1
    53    14    16    1
    54    14    17    1
    55    14    15    1
