@<TRIPOS>MOLECULE
1
 61 61 0 0 0
SMALL
GASTEIGER

@<TRIPOS>ATOM
      1 P          10.2903    7.1511    3.4928 P.3     1  UNL1        0.0000
      2 SI          9.3690    9.3688    5.3895 Si      1  UNL1        0.0000
      3 SI          7.6355    8.5927    2.6628 Si      1  UNL1        0.0000
      4 O           7.8312    5.2281    4.6091 O.2     1  UNL1        0.0000
      5 O           8.0077    4.2612    2.6031 O.3     1  UNL1        0.0000
      6 O          12.8932    5.9855    4.8598 O.2     1  UNL1        0.0000
      7 O          11.7804    5.0896    6.5834 O.3     1  UNL1        0.0000
      8 N          10.8566    4.5713    2.6908 N.3     1  UNL1        0.0000
      9 C           8.8240    8.0542    4.0825 C.3     1  UNL1        0.0000
     10 H           8.2516    7.3232    4.6597 H       1  UNL1        0.0000
     11 C          10.4990    5.8957    4.8235 C.3     1  UNL1        0.0000
     12 H           9.7454    5.8632    5.6092 H       1  UNL1        0.0000
     13 C           9.9463    5.2964    3.5141 C.3     1  UNL1        0.0000
     14 C           8.5144    4.9182    3.6552 C.2     1  UNL1        0.0000
     15 C           6.6225    3.9482    2.6726 C.3     1  UNL1        0.0000
     16 H           6.4275    3.2585    1.8553 H       1  UNL1        0.0000
     17 H           6.0264    4.8555    2.5556 H       1  UNL1        0.0000
     18 H           6.3852    3.4874    3.6332 H       1  UNL1        0.0000
     19 C          11.8477    5.6488    5.3655 C.2     1  UNL1        0.0000
     20 C          13.0193    4.9117    7.2590 C.3     1  UNL1        0.0000
     21 H          13.7385    4.4092    6.6088 H       1  UNL1        0.0000
     22 H          12.8028    4.3068    8.1358 H       1  UNL1        0.0000
     23 H          13.4283    5.8806    7.5530 H       1  UNL1        0.0000
     24 C          11.3605    3.3488    3.3021 C.3     1  UNL1        0.0000
     25 H          11.9032    3.6277    4.2089 H       1  UNL1        0.0000
     26 H          12.0867    2.9190    2.6119 H       1  UNL1        0.0000
     27 C          10.3037    2.3032    3.6634 C.3     1  UNL1        0.0000
     28 H           9.7211    2.0198    2.7901 H       1  UNL1        0.0000
     29 H           9.6272    2.6859    4.4257 H       1  UNL1        0.0000
     30 H          10.7911    1.4143    4.0558 H       1  UNL1        0.0000
     31 C          10.4462    4.4367    1.2957 C.3     1  UNL1        0.0000
     32 H          10.0138    5.3991    1.0106 H       1  UNL1        0.0000
     33 H           9.6719    3.6690    1.1688 H       1  UNL1        0.0000
     34 C          11.5977    4.1164    0.3485 C.3     1  UNL1        0.0000
     35 H          12.4216    4.8094    0.4861 H       1  UNL1        0.0000
     36 H          11.2407    4.2066   -0.6747 H       1  UNL1        0.0000
     37 H          11.9641    3.1027    0.4877 H       1  UNL1        0.0000
     38 C           8.0718    7.6176    1.0867 C.3     1  UNL1        0.0000
     39 H           7.4089    7.8659    0.2632 H       1  UNL1        0.0000
     40 H           8.0056    6.5452    1.2470 H       1  UNL1        0.0000
     41 H           9.0868    7.8469    0.7698 H       1  UNL1        0.0000
     42 C           5.8866    8.1082    3.2595 C.3     1  UNL1        0.0000
     43 H           5.1680    8.1322    2.4463 H       1  UNL1        0.0000
     44 H           5.5325    8.7894    4.0263 H       1  UNL1        0.0000
     45 H           5.8748    7.1101    3.6866 H       1  UNL1        0.0000
     46 C           7.6513   10.4505    2.2521 C.3     1  UNL1        0.0000
     47 H           8.5949   10.7656    1.8219 H       1  UNL1        0.0000
     48 H           7.4592   11.0631    3.1261 H       1  UNL1        0.0000
     49 H           6.8762   10.6695    1.5242 H       1  UNL1        0.0000
     50 C           7.7558    9.9720    6.2106 C.3     1  UNL1        0.0000
     51 H           7.1779    9.1442    6.6084 H       1  UNL1        0.0000
     52 H           7.1228   10.5067    5.5112 H       1  UNL1        0.0000
     53 H           7.9737   10.6441    7.0334 H       1  UNL1        0.0000
     54 C          10.3447   10.8415    4.6834 C.3     1  UNL1        0.0000
     55 H          10.5471   11.5605    5.4718 H       1  UNL1        0.0000
     56 H           9.8118   11.3632    3.8973 H       1  UNL1        0.0000
     57 H          11.3026   10.5224    4.2801 H       1  UNL1        0.0000
     58 C          10.4644    8.5574    6.7260 C.3     1  UNL1        0.0000
     59 H          11.3859    8.1753    6.2957 H       1  UNL1        0.0000
     60 H           9.9648    7.7350    7.2285 H       1  UNL1        0.0000
     61 H          10.7391    9.2828    7.4860 H       1  UNL1        0.0000
@<TRIPOS>BOND
     1    36    34    1
     2    39    38    1
     3    34    35    1
     4    34    37    1
     5    34    31    1
     6    41    38    1
     7    32    31    1
     8    38    40    1
     9    38     3    1
    10    33    31    1
    11    31     8    1
    12    49    46    1
    13    47    46    1
    14    16    15    1
    15    46     3    1
    16    46    48    1
    17    43    42    1
    18    17    15    1
    19     5    15    1
    20     5    14    1
    21    26    24    1
    22     3    42    1
    23     3     9    1
    24    15    18    1
    25     8    24    1
    26     8    13    1
    27    28    27    1
    28    42    45    1
    29    42    44    1
    30    24    27    1
    31    24    25    1
    32     1    13    1
    33     1     9    1
    34     1    11    1
    35    13    14    1
    36    13    11    1
    37    14     4    2
    38    27    30    1
    39    27    29    1
    40    56    54    1
    41     9    10    1
    42     9     2    1
    43    57    54    1
    44    54     2    1
    45    54    55    1
    46    11    19    1
    47    11    12    1
    48     6    19    2
    49    19     7    1
    50     2    50    1
    51     2    58    1
    52    52    50    1
    53    50    51    1
    54    50    53    1
    55    59    58    1
    56     7    20    1
    57    21    20    1
    58    58    60    1
    59    58    61    1
    60    20    23    1
    61    20    22    1
