@<TRIPOS>MOLECULE
1
 56 56 0 0 0
SMALL
GASTEIGER

@<TRIPOS>ATOM
      1 P           7.1346    2.8457    2.1487 P.3     1  UNL1        0.0000
      2 SI          5.5376    1.0975    4.1765 Si      1  UNL1        0.0000
      3 SI          8.7791    0.7499    3.5208 Si      1  UNL1        0.0000
      4 N           8.2772    3.6687    3.0111 N.pl3   1  UNL1        0.5000
      5 N           8.7222    5.7298    3.9347 N.pl3   1  UNL1        0.5000
      6 O           4.2493    3.5331    1.0173 O.3     1  UNL1        0.0000
      7 O           3.5053    4.3021    2.9987 O.2     1  UNL1        0.0000
      8 O           4.9433    6.7645    2.6256 O.3     1  UNL1        0.0000
      9 O           5.5073    6.6342    4.7990 O.2     1  UNL1        0.0000
     10 C           6.9990    1.2114    2.9272 C.3     1  UNL1        0.0000
     11 H           6.7568    0.5388    2.0984 H       1  UNL1        0.0000
     12 C           3.9310    0.9623    3.1462 C.3     1  UNL1        0.0000
     13 H           3.2110    1.7237    3.4297 H       1  UNL1        0.0000
     14 H           3.4535   -0.0027    3.2889 H       1  UNL1        0.0000
     15 H           4.1311    1.0706    2.0837 H       1  UNL1        0.0000
     16 C           5.6804   -0.5250    5.1712 C.3     1  UNL1        0.0000
     17 H           6.5513   -0.5418    5.8162 H       1  UNL1        0.0000
     18 H           5.7313   -1.3909    4.5198 H       1  UNL1        0.0000
     19 H           4.8048   -0.6439    5.8012 H       1  UNL1        0.0000
     20 C           5.5279    2.5654    5.3918 C.3     1  UNL1        0.0000
     21 H           5.2935    2.2355    6.3994 H       1  UNL1        0.0000
     22 H           4.7851    3.3070    5.1139 H       1  UNL1        0.0000
     23 H           6.4913    3.0645    5.4243 H       1  UNL1        0.0000
     24 C          10.1709    1.3301    2.3499 C.3     1  UNL1        0.0000
     25 H           9.8597    2.1876    1.7609 H       1  UNL1        0.0000
     26 H          10.4696    0.5426    1.6647 H       1  UNL1        0.0000
     27 H          11.0531    1.6197    2.9133 H       1  UNL1        0.0000
     28 C           8.8630   -1.1571    3.5484 C.3     1  UNL1        0.0000
     29 H           9.8677   -1.4757    3.8030 H       1  UNL1        0.0000
     30 H           8.6228   -1.5830    2.5794 H       1  UNL1        0.0000
     31 H           8.1895   -1.5916    4.2765 H       1  UNL1        0.0000
     32 C           9.0781    1.4441    5.2722 C.3     1  UNL1        0.0000
     33 H          10.0470    1.1259    5.6436 H       1  UNL1        0.0000
     34 H           8.3275    1.1013    5.9759 H       1  UNL1        0.0000
     35 H           9.0622    2.5284    5.2716 H       1  UNL1        0.0000
     36 C           5.8290    4.0189    2.6326 C.3     1  UNL1        0.0000
     37 C           6.4249    5.0866    3.2302 C.2     1  UNL1        0.0000
     38 C           7.8579    4.8464    3.4238 C.2     1  UNL1        0.0000
     39 C           4.4102    3.9800    2.2678 C.2     1  UNL1        0.0000
     40 C           2.9185    3.4601    0.5182 C.3     1  UNL1        0.0000
     41 H           2.2698    4.1243    1.0918 H       1  UNL1        0.0000
     42 H           2.5554    2.4340    0.5999 H       1  UNL1        0.0000
     43 H           2.9523    3.7611   -0.5272 H       1  UNL1        0.0000
     44 C           5.6025    6.2457    3.6622 C.2     1  UNL1        0.0000
     45 C           3.9671    7.7545    2.9227 C.3     1  UNL1        0.0000
     46 H           3.0690    7.2696    3.3103 H       1  UNL1        0.0000
     47 H           3.7530    8.2642    1.9867 H       1  UNL1        0.0000
     48 H           4.3497    8.4527    3.6698 H       1  UNL1        0.0000
     49 C           8.3610    7.0750    4.3134 C.3     1  UNL1        0.0000
     50 H           7.8438    7.5841    3.4962 H       1  UNL1        0.0000
     51 H           9.2703    7.6262    4.5419 H       1  UNL1        0.0000
     52 H           7.7111    7.0820    5.1908 H       1  UNL1        0.0000
     53 C          10.1242    5.3876    4.0148 C.3     1  UNL1        0.0000
     54 H          10.2502    4.3571    3.6933 H       1  UNL1        0.0000
     55 H          10.4760    5.4977    5.0423 H       1  UNL1        0.0000
     56 H          10.7100    6.0408    3.3640 H       1  UNL1        0.0000
@<TRIPOS>BOND
     1    43    40    1
     2    40    42    1
     3    40     6    1
     4    40    41    1
     5     6    39    1
     6    26    24    1
     7    25    24    1
     8    47    45    1
     9    15    12    1
    10    11    10    1
    11     1    36    1
    12     1    10    1
    13     1     4    1
    14    39    36    1
    15    39     7    2
    16    24    27    1
    17    24     3    1
    18    30    28    1
    19     8    45    1
    20     8    44    1
    21    36    37    1
    22    45    46    1
    23    45    48    1
    24    10     3    1
    25    10     2    1
    26     4    38    1
    27    12    14    1
    28    12    13    1
    29    12     2    1
    30    37    38    2
    31    37    44    1
    32    56    53    1
    33    38     5    1
    34    50    49    1
    35     3    28    1
    36     3    32    1
    37    28    29    1
    38    28    31    1
    39    44     9    2
    40    54    53    1
    41     5    53    1
    42     5    49    1
    43    53    55    1
    44     2    16    1
    45     2    20    1
    46    49    51    1
    47    49    52    1
    48    18    16    1
    49    22    20    1
    50    16    19    1
    51    16    17    1
    52    35    32    1
    53    32    33    1
    54    32    34    1
    55    20    23    1
    56    20    21    1
