@<TRIPOS>MOLECULE
1
 61 62 0 0 0
SMALL
GASTEIGER

@<TRIPOS>ATOM
      1 P           3.3371    3.1545    3.7731 P.3     1  UNL1        0.0000
      2 SI          1.4071    3.9646    5.9703 Si      1  UNL1        0.0000
      3 SI          1.9077    5.8738    3.2877 Si      1  UNL1        0.0000
      4 O           5.3342    1.6613    2.1379 O.2     1  UNL1        0.0000
      5 O           6.1614    3.5393    1.2311 O.3     1  UNL1        0.0000
      6 O           4.4641    0.5719    4.7878 O.2     1  UNL1        0.0000
      7 O           6.6024    1.2110    4.5403 O.3     1  UNL1        0.0000
      8 C           2.5901    4.6043    4.5782 C.3     1  UNL1        0.0000
      9 H           3.4065    5.1116    5.0973 H       1  UNL1        0.0000
     10 C           1.2256    5.4528    7.1555 C.3     1  UNL1        0.0000
     11 H           0.8064    6.3160    6.6500 H       1  UNL1        0.0000
     12 H           2.1789    5.7528    7.5790 H       1  UNL1        0.0000
     13 H           0.5668    5.2049    7.9801 H       1  UNL1        0.0000
     14 C          -0.3142    3.3857    5.4015 C.3     1  UNL1        0.0000
     15 H          -0.2427    2.5983    4.6564 H       1  UNL1        0.0000
     16 H          -0.9155    4.1850    4.9868 H       1  UNL1        0.0000
     17 H          -0.8569    2.9800    6.2506 H       1  UNL1        0.0000
     18 C           2.1729    2.4973    6.9262 C.3     1  UNL1        0.0000
     19 H           1.3900    1.8561    7.3208 H       1  UNL1        0.0000
     20 H           2.7730    2.8161    7.7741 H       1  UNL1        0.0000
     21 H           2.7924    1.8784    6.2803 H       1  UNL1        0.0000
     22 C           0.0270    6.1693    3.3280 C.3     1  UNL1        0.0000
     23 H          -0.2170    6.9951    2.6662 H       1  UNL1        0.0000
     24 H          -0.3203    6.4360    4.3204 H       1  UNL1        0.0000
     25 H          -0.5393    5.3105    2.9893 H       1  UNL1        0.0000
     26 C           2.6846    7.5605    3.7550 C.3     1  UNL1        0.0000
     27 H           3.7457    7.6171    3.5421 H       1  UNL1        0.0000
     28 H           2.5520    7.7690    4.8121 H       1  UNL1        0.0000
     29 H           2.2018    8.3617    3.2048 H       1  UNL1        0.0000
     30 C           2.4049    5.3895    1.5099 C.3     1  UNL1        0.0000
     31 H           2.5940    6.2650    0.8952 H       1  UNL1        0.0000
     32 H           1.6133    4.8236    1.0280 H       1  UNL1        0.0000
     33 H           3.2998    4.7714    1.4870 H       1  UNL1        0.0000
     34 C           5.1215    3.6782    3.3426 C.3     1  UNL1        0.0000
     35 C           5.6254    5.1030    3.3804 C.3     1  UNL1        0.0000
     36 H           6.5759    5.1360    2.8358 H       1  UNL1        0.0000
     37 H           4.9348    5.7538    2.8330 H       1  UNL1        0.0000
     38 C           5.8546    5.6846    4.7451 C.2     1  UNL1        0.0000
     39 C           5.7253    4.9996    5.8770 C.2     1  UNL1        0.0000
     40 C           5.3716    3.5418    5.9445 C.3     1  UNL1        0.0000
     41 H           4.5938    3.4009    6.6994 H       1  UNL1        0.0000
     42 H           6.2608    3.0065    6.3007 H       1  UNL1        0.0000
     43 C           4.9343    2.8947    4.6413 C.3     1  UNL1        0.0000
     44 C           5.5543    2.8564    2.2074 C.2     1  UNL1        0.0000
     45 C           6.5404    2.7843    0.0864 C.3     1  UNL1        0.0000
     46 H           7.1084    1.9020    0.3863 H       1  UNL1        0.0000
     47 H           7.1488    3.4475   -0.5231 H       1  UNL1        0.0000
     48 H           5.6545    2.4644   -0.4646 H       1  UNL1        0.0000
     49 C           5.2950    1.4323    4.6210 C.2     1  UNL1        0.0000
     50 C           6.9932   -0.1568    4.4729 C.3     1  UNL1        0.0000
     51 H           6.5825   -0.7091    5.3202 H       1  UNL1        0.0000
     52 H           8.0799   -0.1640    4.4946 H       1  UNL1        0.0000
     53 H           6.6214   -0.5971    3.5467 H       1  UNL1        0.0000
     54 C           5.9772    5.6378    7.2150 C.3     1  UNL1        0.0000
     55 H           6.9973    6.0149    7.2770 H       1  UNL1        0.0000
     56 H           5.8263    4.9244    8.0204 H       1  UNL1        0.0000
     57 H           5.3070    6.4828    7.3717 H       1  UNL1        0.0000
     58 C           6.2814    7.1260    4.7487 C.3     1  UNL1        0.0000
     59 H           5.5876    7.7373    5.3245 H       1  UNL1        0.0000
     60 H           6.3335    7.5181    3.7366 H       1  UNL1        0.0000
     61 H           7.2647    7.2316    5.2063 H       1  UNL1        0.0000
@<TRIPOS>BOND
     1    47    45    1
     2    48    45    1
     3    45    46    1
     4    45     5    1
     5    31    30    1
     6    32    30    1
     7     5    44    1
     8    33    30    1
     9    30     3    1
    10     4    44    2
    11    44    34    1
    12    23    22    1
    13    37    35    1
    14    36    35    1
    15    25    22    1
    16    29    26    1
    17     3    22    1
    18     3    26    1
    19     3     8    1
    20    22    24    1
    21    34    35    1
    22    34     1    1
    23    34    43    1
    24    35    38    1
    25    27    26    1
    26    53    50    1
    27    60    58    1
    28    26    28    1
    29     1     8    1
    30     1    43    1
    31    50    52    1
    32    50     7    1
    33    50    51    1
    34     7    49    1
    35     8     9    1
    36     8     2    1
    37    49    43    1
    38    49     6    2
    39    43    40    1
    40    15    14    1
    41    38    58    1
    42    38    39    2
    43    58    61    1
    44    58    59    1
    45    16    14    1
    46    14     2    1
    47    14    17    1
    48    39    40    1
    49    39    54    1
    50    40    42    1
    51    40    41    1
    52     2    18    1
    53     2    10    1
    54    21    18    1
    55    11    10    1
    56    18    19    1
    57    18    20    1
    58    10    12    1
    59    10    13    1
    60    54    55    1
    61    54    57    1
    62    54    56    1
