@<TRIPOS>MOLECULE
1
 20 20 0 0 0
SMALL
GASTEIGER

@<TRIPOS>ATOM
      1 P           1.9397    2.7789    5.9426 P.3     1  UNL1       -0.0810
      2 C           0.8204    2.4840    7.3418 C.ar    1  UNL1       -0.0239
      3 C           0.8809    3.3569    8.4246 C.ar    1  UNL1       -0.0542
      4 H           1.6158    4.1516    8.4220 H       1  UNL1        0.0624
      5 C           0.0081    3.2171    9.4873 C.ar    1  UNL1       -0.0612
      6 H           0.0650    3.8960   10.3268 H       1  UNL1        0.0618
      7 C          -0.9404    2.2064    9.4766 C.ar    1  UNL1       -0.0617
      8 H          -1.6265    2.0981   10.3037 H       1  UNL1        0.0618
      9 C          -1.0097    1.3396    8.3992 C.ar    1  UNL1       -0.0612
     10 H          -1.7528    0.5553    8.3854 H       1  UNL1        0.0618
     11 C          -0.1350    1.4773    7.3348 C.ar    1  UNL1       -0.0542
     12 H          -0.2112    0.8153    6.4866 H       1  UNL1        0.0624
     13 C           2.0293    1.1967    5.0352 C.3     1  UNL1       -0.0405
     14 H           2.8659    1.2724    4.3409 H       1  UNL1        0.0280
     15 H           1.1155    1.0349    4.4722 H       1  UNL1        0.0280
     16 H           2.2029    0.3736    5.7289 H       1  UNL1        0.0280
     17 C           3.5757    2.6824    6.8111 C.3     1  UNL1       -0.0405
     18 H           4.3520    2.7381    6.0520 H       1  UNL1        0.0280
     19 H           3.6771    1.7577    7.3762 H       1  UNL1        0.0280
     20 H           3.6993    3.5308    7.4782 H       1  UNL1        0.0280
@<TRIPOS>BOND
     1    14    13    1
     2    15    13    1
     3    13    16    1
     4    13     1    1
     5     1    17    1
     6     1     2    1
     7    18    17    1
     8    12    11    1
     9    17    19    1
    10    17    20    1
    11    11     2   ar
    12    11     9   ar
    13     2     3   ar
    14    10     9    1
    15     9     7   ar
    16     4     3    1
    17     3     5   ar
    18     7     5   ar
    19     7     8    1
    20     5     6    1
