@<TRIPOS>MOLECULE
1
 31 30 0 0 0
SMALL
GASTEIGER

@<TRIPOS>ATOM
      1 P           9.2299   10.0049    3.5870 P.3     1  UNL1       -0.0980
      2 C          10.0800   10.0772    1.9153 C.3     1  UNL1       -0.0257
      3 H           9.2612   10.4137    1.2676 H       1  UNL1        0.0344
      4 C          10.5121    8.6927    1.4337 C.3     1  UNL1       -0.0587
      5 H          11.5150    8.4520    1.7719 H       1  UNL1        0.0236
      6 H          10.5145    8.6536    0.3444 H       1  UNL1        0.0236
      7 H           9.8400    7.9262    1.8111 H       1  UNL1        0.0236
      8 C          11.2314   11.0694    1.7751 C.3     1  UNL1       -0.0587
      9 H          11.5571   11.0845    0.7348 H       1  UNL1        0.0236
     10 H          12.0822   10.7733    2.3819 H       1  UNL1        0.0236
     11 H          10.9404   12.0803    2.0475 H       1  UNL1        0.0236
     12 C           8.8344   11.8155    3.8549 C.3     1  UNL1       -0.0257
     13 H           9.7883   12.3499    3.8842 H       1  UNL1        0.0344
     14 C           8.1092   12.0256    5.1818 C.3     1  UNL1       -0.0587
     15 H           8.0513   13.0888    5.4101 H       1  UNL1        0.0236
     16 H           8.6128   11.5221    6.0020 H       1  UNL1        0.0236
     17 H           7.0972   11.6311    5.1293 H       1  UNL1        0.0236
     18 C           7.9865   12.3786    2.7199 C.3     1  UNL1       -0.0587
     19 H           7.6318   13.3733    2.9850 H       1  UNL1        0.0236
     20 H           7.1180   11.7409    2.5652 H       1  UNL1        0.0236
     21 H           8.5444   12.4580    1.7898 H       1  UNL1        0.0236
     22 C          10.5674    9.7160    4.8890 C.3     1  UNL1       -0.0257
     23 H           9.9825    9.3406    5.7365 H       1  UNL1        0.0344
     24 C          11.5653    8.6222    4.5067 C.3     1  UNL1       -0.0587
     25 H          12.1106    8.3123    5.3973 H       1  UNL1        0.0236
     26 H          12.2916    8.9863    3.7848 H       1  UNL1        0.0236
     27 H          11.0612    7.7491    4.1062 H       1  UNL1        0.0236
     28 C          11.3519   10.9471    5.3491 C.3     1  UNL1       -0.0587
     29 H          12.0878   10.6224    6.0842 H       1  UNL1        0.0236
     30 H          10.7247   11.6933    5.8254 H       1  UNL1        0.0236
     31 H          11.8907   11.4132    4.5288 H       1  UNL1        0.0236
@<TRIPOS>BOND
     1     6     4    1
     2     9     8    1
     3     3     2    1
     4     4     5    1
     5     4     7    1
     6     4     2    1
     7     8     2    1
     8     8    11    1
     9     8    10    1
    10    21    18    1
    11     2     1    1
    12    20    18    1
    13    18    19    1
    14    18    12    1
    15     1    12    1
    16     1    22    1
    17    26    24    1
    18    12    13    1
    19    12    14    1
    20    27    24    1
    21    24    22    1
    22    24    25    1
    23    31    28    1
    24    22    28    1
    25    22    23    1
    26    17    14    1
    27    14    15    1
    28    14    16    1
    29    28    30    1
    30    28    29    1
