@<TRIPOS>MOLECULE
1
 13 12 0 0 0
SMALL
GASTEIGER

@<TRIPOS>ATOM
      1 P           0.1931    1.6059    6.2150 P.3     1  UNL1       -0.1154
      2 C          -0.7634    0.9502    7.6334 C.3     1  UNL1       -0.0447
      3 C           1.8888    1.4559    6.9044 C.3     1  UNL1       -0.0447
      4 C          -0.1282    3.3999    6.4413 C.3     1  UNL1       -0.0447
      5 H          -0.4700    1.4748    8.5436 H       1  UNL1        0.0277
      6 H          -0.5646   -0.1159    7.7415 H       1  UNL1        0.0277
      7 H          -1.8279    1.0955    7.4504 H       1  UNL1        0.0277
      8 H           2.1548    0.3993    6.9319 H       1  UNL1        0.0277
      9 H           1.9217    1.8668    7.9137 H       1  UNL1        0.0277
     10 H           2.5990    1.9869    6.2722 H       1  UNL1        0.0277
     11 H           0.0378    3.6833    7.4808 H       1  UNL1        0.0277
     12 H           0.5281    3.9825    5.7963 H       1  UNL1        0.0277
     13 H          -1.1649    3.5989    6.1700 H       1  UNL1        0.0277
@<TRIPOS>BOND
     1    12     4    1
     2    13     4    1
     3     1     4    1
     4     1     3    1
     5     1     2    1
     6    10     3    1
     7     4    11    1
     8     3     8    1
     9     3     9    1
    10     7     2    1
    11     2     6    1
    12     2     5    1
