@<TRIPOS>MOLECULE
1
 13 12 0 0 0
SMALL
GASTEIGER

@<TRIPOS>ATOM
      1 P          -4.8508    6.1652    3.4522 P.3     1  UNL1       -0.1154
      2 C          -6.6597    6.2431    3.7298 C.3     1  UNL1       -0.0447
      3 H          -6.9871    5.4011    4.3363 H       1  UNL1        0.0277
      4 H          -7.1917    6.2398    2.7775 H       1  UNL1        0.0277
      5 H          -6.8724    7.1660    4.2679 H       1  UNL1        0.0277
      6 C          -4.7033    7.4198    2.1240 C.3     1  UNL1       -0.0447
      7 H          -4.9610    8.3985    2.5223 H       1  UNL1        0.0277
      8 H          -5.3568    7.1748    1.2847 H       1  UNL1        0.0277
      9 H          -3.6667    7.4328    1.7857 H       1  UNL1        0.0277
     10 C          -4.7267    4.6886    2.3540 C.3     1  UNL1       -0.0447
     11 H          -4.7321    3.7653    2.9314 H       1  UNL1        0.0277
     12 H          -3.7748    4.7648    1.8285 H       1  UNL1        0.0277
     13 H          -5.5414    4.6729    1.6285 H       1  UNL1        0.0277
@<TRIPOS>BOND
     1     8     6    1
     2    13    10    1
     3     9     6    1
     4    12    10    1
     5     6     7    1
     6     6     1    1
     7    10    11    1
     8    10     1    1
     9     4     2    1
    10     1     2    1
    11     2     5    1
    12     2     3    1
