@<TRIPOS>MOLECULE
1
 13 12 0 0 0
SMALL
GASTEIGER

@<TRIPOS>ATOM
      1 P          -3.7198    4.2124    6.2018 P.3     1  UNL1       -0.1154
      2 C          -2.8117    2.6489    5.8377 C.3     1  UNL1       -0.0447
      3 H          -3.1387    1.8568    6.5113 H       1  UNL1        0.0277
      4 H          -1.7431    2.8110    5.9616 H       1  UNL1        0.0277
      5 H          -3.0040    2.3442    4.8112 H       1  UNL1        0.0277
      6 C          -5.4322    3.5693    5.9879 C.3     1  UNL1       -0.0447
      7 H          -5.5559    2.6181    6.5082 H       1  UNL1        0.0277
      8 H          -5.6522    3.4319    4.9302 H       1  UNL1        0.0277
      9 H          -6.1209    4.3057    6.4005 H       1  UNL1        0.0277
     10 C          -3.6859    4.0949    8.0399 C.3     1  UNL1       -0.0447
     11 H          -4.3002    4.8991    8.4432 H       1  UNL1        0.0277
     12 H          -2.6650    4.2054    8.4039 H       1  UNL1        0.0277
     13 H          -4.0813    3.1329    8.3697 H       1  UNL1        0.0277
@<TRIPOS>BOND
     1     5     2    1
     2     8     6    1
     3     2     4    1
     4     2     1    1
     5     2     3    1
     6     6     1    1
     7     6     9    1
     8     6     7    1
     9     1    10    1
    10    10    13    1
    11    10    12    1
    12    10    11    1
