@<TRIPOS>MOLECULE
1
 13 12 0 0 0
SMALL
GASTEIGER

@<TRIPOS>ATOM
      1 P          -1.6478    6.9386    6.9553 P.3     1  UNL1       -0.1154
      2 C          -0.2690    5.7333    7.1985 C.3     1  UNL1       -0.0447
      3 H          -0.6580    4.7443    7.4386 H       1  UNL1        0.0277
      4 H           0.4075    6.0628    7.9883 H       1  UNL1        0.0277
      5 H           0.2799    5.6697    6.2580 H       1  UNL1        0.0277
      6 C          -2.1030    7.2876    8.6959 C.3     1  UNL1       -0.0447
      7 H          -2.5927    6.4303    9.1509 H       1  UNL1        0.0277
      8 H          -2.7965    8.1280    8.7012 H       1  UNL1        0.0277
      9 H          -1.2115    7.5465    9.2687 H       1  UNL1        0.0277
     10 C          -0.6035    8.4141    6.6520 C.3     1  UNL1       -0.0447
     11 H          -1.2381    9.2980    6.6250 H       1  UNL1        0.0277
     12 H          -0.1122    8.2967    5.6883 H       1  UNL1        0.0277
     13 H           0.1487    8.5275    7.4345 H       1  UNL1        0.0277
@<TRIPOS>BOND
     1    12    10    1
     2     5     2    1
     3    11    10    1
     4    10     1    1
     5    10    13    1
     6     1     2    1
     7     1     6    1
     8     2     3    1
     9     2     4    1
    10     6     8    1
    11     6     7    1
    12     6     9    1
