@<TRIPOS>MOLECULE
1
 54 55 0 0 0
SMALL
GASTEIGER

@<TRIPOS>ATOM
      1 P           5.0676    9.3937   13.2463 P.3     1  UNL1        0.0000
      2 SI          2.0196    9.5043   13.2089 Si      1  UNL1        0.0000
      3 SI          3.7908   10.6690   15.7710 Si      1  UNL1        0.0000
      4 N           6.2823    9.5900   14.3676 N.2     1  UNL1        0.5000
      5 N           7.7558    8.3928   15.6601 N.pl3   1  UNL1        0.5000
      6 C           3.6267   10.3110   13.8884 C.3     1  UNL1        0.0000
      7 C           4.1286    9.0865   16.7890 C.3     1  UNL1        0.0000
      8 C           5.1352   11.9952   16.0394 C.3     1  UNL1        0.0000
      9 C           2.1501   11.4173   16.3976 C.3     1  UNL1        0.0000
     10 C           0.6878   10.8609   13.0764 C.3     1  UNL1        0.0000
     11 C           2.2412    8.7612   11.4680 C.3     1  UNL1        0.0000
     12 C           1.4431    8.1138   14.3850 C.3     1  UNL1        0.0000
     13 C           4.9165    7.6320   13.5779 C.2     1  UNL1        0.0000
     14 C           5.9588    7.2546   14.3515 C.2     1  UNL1        0.0000
     15 C           6.6970    8.4390   14.8310 C.2     1  UNL1        0.0000
     16 C           8.0093    7.3373   16.6099 C.3     1  UNL1        0.0000
     17 C           8.5011    9.6085   15.8915 C.3     1  UNL1        0.0000
     18 C           6.3410    5.8556   14.5661 C.ar    1  UNL1        0.0000
     19 C           5.4260    4.9389   15.0765 C.ar    1  UNL1        0.0000
     20 C           5.7781    3.6095   15.2232 C.ar    1  UNL1        0.0000
     21 C           7.0390    3.1785   14.8467 C.ar    1  UNL1        0.0000
     22 C           7.9482    4.0818   14.3200 C.ar    1  UNL1        0.0000
     23 C           7.6055    5.4132   14.1807 C.ar    1  UNL1        0.0000
     24 H           3.7210   11.2813   13.3890 H       1  UNL1        0.0000
     25 H           5.1826    8.9945   17.0277 H       1  UNL1        0.0000
     26 H           3.8384    8.1926   16.2469 H       1  UNL1        0.0000
     27 H           3.5790    9.1011   17.7251 H       1  UNL1        0.0000
     28 H           5.3700   12.1134   17.0934 H       1  UNL1        0.0000
     29 H           4.8043   12.9617   15.6692 H       1  UNL1        0.0000
     30 H           6.0479   11.7343   15.5151 H       1  UNL1        0.0000
     31 H           2.2577   11.7141   17.4353 H       1  UNL1        0.0000
     32 H           1.3234   10.7184   16.3422 H       1  UNL1        0.0000
     33 H           1.8752   12.3025   15.8352 H       1  UNL1        0.0000
     34 H          -0.2243   10.4517   12.6552 H       1  UNL1        0.0000
     35 H           1.0114   11.6696   12.4287 H       1  UNL1        0.0000
     36 H           0.4400   11.2889   14.0404 H       1  UNL1        0.0000
     37 H           3.0763    8.0698   11.4244 H       1  UNL1        0.0000
     38 H           2.4184    9.5317   10.7235 H       1  UNL1        0.0000
     39 H           1.3503    8.2182   11.1640 H       1  UNL1        0.0000
     40 H           0.5097    7.6860   14.0330 H       1  UNL1        0.0000
     41 H           1.2767    8.4818   15.3916 H       1  UNL1        0.0000
     42 H           2.1682    7.3083   14.4459 H       1  UNL1        0.0000
     43 H           4.2714    6.9403   13.0619 H       1  UNL1        0.0000
     44 H           7.1937    6.6202   16.6247 H       1  UNL1        0.0000
     45 H           8.1068    7.7710   17.6092 H       1  UNL1        0.0000
     46 H           8.9374    6.8110   16.3696 H       1  UNL1        0.0000
     47 H           8.4234   10.2422   15.0111 H       1  UNL1        0.0000
     48 H           9.5458    9.3538   16.0706 H       1  UNL1        0.0000
     49 H           8.1116   10.1590   16.7533 H       1  UNL1        0.0000
     50 H           4.4422    5.2777   15.3696 H       1  UNL1        0.0000
     51 H           5.0641    2.9072   15.6278 H       1  UNL1        0.0000
     52 H           7.3107    2.1394   14.9575 H       1  UNL1        0.0000
     53 H           8.9273    3.7456   14.0124 H       1  UNL1        0.0000
     54 H           8.3053    6.1176   13.7563 H       1  UNL1        0.0000
@<TRIPOS>BOND
     1    38    11    1
     2    39    11    1
     3    37    11    1
     4    11     2    1
     5    35    10    1
     6    34    10    1
     7    43    13    1
     8    10     2    1
     9    10    36    1
    10     2     6    1
    11     2    12    1
    12     1    13    1
    13     1     6    1
    14     1     4    1
    15    24     6    1
    16    13    14    2
    17    54    23    1
    18     6     3    1
    19    53    22    1
    20    40    12    1
    21    23    22   ar
    22    23    18   ar
    23    22    21   ar
    24    14    18    1
    25    14    15    1
    26     4    15    2
    27    12    42    1
    28    12    41    1
    29    18    19   ar
    30    15     5    1
    31    21    52    1
    32    21    20   ar
    33    47    17    1
    34    19    20   ar
    35    19    50    1
    36    20    51    1
    37    30     8    1
    38     5    17    1
    39     5    16    1
    40    29     8    1
    41     3     8    1
    42     3     9    1
    43     3     7    1
    44    33     9    1
    45    17    48    1
    46    17    49    1
    47     8    28    1
    48    26     7    1
    49    32     9    1
    50    46    16    1
    51     9    31    1
    52    16    44    1
    53    16    45    1
    54     7    25    1
    55     7    27    1
