@<TRIPOS>MOLECULE
1
 44 43 0 0 0
SMALL
GASTEIGER

@<TRIPOS>ATOM
      1 P           2.4292    2.3078   10.4980 P.3     1  UNL1        0.0000
      2 SI          1.5160    4.0080    8.1456 Si      1  UNL1        0.0000
      3 SI          4.6932    3.7743    9.0428 Si      1  UNL1        0.0000
      4 SI          1.6144   -0.3322    9.1042 Si      1  UNL1        0.0000
      5 O           2.1031    1.2402    9.3538 O.3     1  UNL1        0.0000
      6 C           2.8361    3.7845    9.5278 C.3     1  UNL1        0.0000
      7 C           1.4191    5.8722    7.7511 C.3     1  UNL1        0.0000
      8 C           2.0222    3.0395    6.5809 C.3     1  UNL1        0.0000
      9 C          -0.2280    3.4483    8.6804 C.3     1  UNL1        0.0000
     10 C           5.1880    2.1200    8.2359 C.3     1  UNL1        0.0000
     11 C           5.0927    5.2129    7.8580 C.3     1  UNL1        0.0000
     12 C           5.6891    4.0537   10.6499 C.3     1  UNL1        0.0000
     13 C          -0.0738   -0.2331    8.2345 C.3     1  UNL1        0.0000
     14 C           1.5388   -1.2825   10.7488 C.3     1  UNL1        0.0000
     15 C           2.9455   -1.0664    7.9557 C.3     1  UNL1        0.0000
     16 H           3.7196    1.8282   10.8220 H       1  UNL1        0.0000
     17 H           2.6992    4.6122   10.2304 H       1  UNL1        0.0000
     18 H           2.3612    6.2630    7.3853 H       1  UNL1        0.0000
     19 H           1.1400    6.4502    8.6264 H       1  UNL1        0.0000
     20 H           0.6703    6.0553    6.9884 H       1  UNL1        0.0000
     21 H           2.1778    1.9897    6.8032 H       1  UNL1        0.0000
     22 H           2.9368    3.4295    6.1471 H       1  UNL1        0.0000
     23 H           1.2477    3.1102    5.8233 H       1  UNL1        0.0000
     24 H          -0.1746    2.6216    9.3820 H       1  UNL1        0.0000
     25 H          -0.8124    3.1193    7.8261 H       1  UNL1        0.0000
     26 H          -0.7809    4.2532    9.1552 H       1  UNL1        0.0000
     27 H           4.8960    2.0791    7.1919 H       1  UNL1        0.0000
     28 H           4.7135    1.2846    8.7405 H       1  UNL1        0.0000
     29 H           6.2626    1.9698    8.2812 H       1  UNL1        0.0000
     30 H           4.8161    6.1703    8.2863 H       1  UNL1        0.0000
     31 H           4.5829    5.1157    6.9062 H       1  UNL1        0.0000
     32 H           6.1582    5.2423    7.6574 H       1  UNL1        0.0000
     33 H           5.4754    5.0290   11.0783 H       1  UNL1        0.0000
     34 H           6.7583    4.0078   10.4659 H       1  UNL1        0.0000
     35 H           5.4549    3.3110   11.4075 H       1  UNL1        0.0000
     36 H          -0.3563   -1.2059    7.8455 H       1  UNL1        0.0000
     37 H          -0.0526    0.4633    7.4013 H       1  UNL1        0.0000
     38 H          -0.8609    0.0878    8.9102 H       1  UNL1        0.0000
     39 H           2.4965   -1.2568   11.2634 H       1  UNL1        0.0000
     40 H           1.2768   -2.3247   10.5965 H       1  UNL1        0.0000
     41 H           0.7974   -0.8538   11.4194 H       1  UNL1        0.0000
     42 H           2.6459   -2.0527    7.6180 H       1  UNL1        0.0000
     43 H           3.9040   -1.1711    8.4559 H       1  UNL1        0.0000
     44 H           3.1024   -0.4528    7.0736 H       1  UNL1        0.0000
@<TRIPOS>BOND
     1    23     8    1
     2    22     8    1
     3     8    21    1
     4     8     2    1
     5    31    11    1
     6    20     7    1
     7    44    15    1
     8    27    10    1
     9    18     7    1
    10    37    13    1
    11    42    15    1
    12    32    11    1
    13     7     2    1
    14     7    19    1
    15    25     9    1
    16    36    13    1
    17    11    30    1
    18    11     3    1
    19    15    43    1
    20    15     4    1
    21     2     9    1
    22     2     6    1
    23    13    38    1
    24    13     4    1
    25    10    29    1
    26    10    28    1
    27    10     3    1
    28     9    26    1
    29     9    24    1
    30     3     6    1
    31     3    12    1
    32     4     5    1
    33     4    14    1
    34     5     1    1
    35     6    17    1
    36     6     1    1
    37    34    12    1
    38     1    16    1
    39    40    14    1
    40    12    33    1
    41    12    35    1
    42    14    39    1
    43    14    41    1
