@<TRIPOS>MOLECULE
1
 31 30 0 0 0
SMALL
GASTEIGER

@<TRIPOS>ATOM
      1 P          -2.0647    1.9839   10.0633 P.3     1  UNL1       -0.0980
      2 C          -0.9635    3.5019    9.8455 C.3     1  UNL1       -0.0257
      3 C          -0.4838    4.0196   11.2010 C.3     1  UNL1       -0.0587
      4 C          -1.4935    4.6712    9.0145 C.3     1  UNL1       -0.0587
      5 C          -3.2436    2.4453   11.4472 C.3     1  UNL1       -0.0257
      6 C          -4.2421    3.5495   11.1145 C.3     1  UNL1       -0.0587
      7 C          -3.9628    1.2212   12.0092 C.3     1  UNL1       -0.0587
      8 C          -3.0926    2.0375    8.4995 C.3     1  UNL1       -0.0257
      9 C          -2.2184    1.8053    7.2685 C.3     1  UNL1       -0.0587
     10 C          -4.2215    1.0120    8.5101 C.3     1  UNL1       -0.0587
     11 H          -0.0952    3.0792    9.3211 H       1  UNL1        0.0344
     12 H           0.3965    4.6434   11.0629 H       1  UNL1        0.0236
     13 H          -0.2170    3.1962   11.8576 H       1  UNL1        0.0236
     14 H          -1.2513    4.6231   11.6809 H       1  UNL1        0.0236
     15 H          -0.7126    5.4285    8.9633 H       1  UNL1        0.0236
     16 H          -2.3668    5.1332    9.4663 H       1  UNL1        0.0236
     17 H          -1.7379    4.3836    7.9974 H       1  UNL1        0.0236
     18 H          -2.5675    2.8035   12.2319 H       1  UNL1        0.0344
     19 H          -4.8095    3.7937   12.0120 H       1  UNL1        0.0236
     20 H          -4.9492    3.2381   10.3498 H       1  UNL1        0.0236
     21 H          -3.7439    4.4545   10.7813 H       1  UNL1        0.0236
     22 H          -4.5264    1.5046   12.8972 H       1  UNL1        0.0236
     23 H          -3.2413    0.4647   12.3047 H       1  UNL1        0.0236
     24 H          -4.6555    0.7872   11.2933 H       1  UNL1        0.0236
     25 H          -3.5223    3.0434    8.4539 H       1  UNL1        0.0344
     26 H          -2.7534    2.1103    6.3702 H       1  UNL1        0.0236
     27 H          -1.9769    0.7492    7.1782 H       1  UNL1        0.0236
     28 H          -1.2801    2.3515    7.3214 H       1  UNL1        0.0236
     29 H          -4.6896    0.9703    7.5272 H       1  UNL1        0.0236
     30 H          -4.9923    1.2605    9.2347 H       1  UNL1        0.0236
     31 H          -3.8274    0.0249    8.7397 H       1  UNL1        0.0236
@<TRIPOS>BOND
     1    26     9    1
     2    27     9    1
     3     9    28    1
     4     9     8    1
     5    29    10    1
     6    17     4    1
     7    25     8    1
     8     8    10    1
     9     8     1    1
    10    10    31    1
    11    10    30    1
    12    15     4    1
    13     4    16    1
    14     4     2    1
    15    11     2    1
    16     2     1    1
    17     2     3    1
    18     1     5    1
    19    20     6    1
    20    21     6    1
    21    12     3    1
    22     6     5    1
    23     6    19    1
    24     3    14    1
    25     3    13    1
    26    24     7    1
    27     5     7    1
    28     5    18    1
    29     7    23    1
    30     7    22    1
