@<TRIPOS>MOLECULE
1
 34 36 0 0 0
SMALL
GASTEIGER

@<TRIPOS>ATOM
      1 P           1.6369    8.5682    4.3062 P.3     1  UNL1       -0.0131
      2 C           0.0932    8.9313    3.3870 C.ar    1  UNL1       -0.0147
      3 C          -1.0048    9.5468    3.9815 C.ar    1  UNL1       -0.0535
      4 C          -2.1439    9.7930    3.2380 C.ar    1  UNL1       -0.0611
      5 C          -2.1975    9.4301    1.9009 C.ar    1  UNL1       -0.0617
      6 C          -1.1066    8.8205    1.3044 C.ar    1  UNL1       -0.0611
      7 C           0.0354    8.5744    2.0453 C.ar    1  UNL1       -0.0535
      8 C           1.7756   10.1086    5.2849 C.ar    1  UNL1       -0.0147
      9 C           1.1482   10.3021    6.5118 C.ar    1  UNL1       -0.0535
     10 C           1.2847   11.5078    7.1771 C.ar    1  UNL1       -0.0611
     11 C           2.0416   12.5280    6.6263 C.ar    1  UNL1       -0.0617
     12 C           2.6708   12.3404    5.4061 C.ar    1  UNL1       -0.0611
     13 C           2.5406   11.1359    4.7410 C.ar    1  UNL1       -0.0535
     14 C           1.0510    7.4004    5.5793 C.ar    1  UNL1       -0.0147
     15 C          -0.1290    6.6742    5.4779 C.ar    1  UNL1       -0.0535
     16 C          -0.4374    5.7210    6.4340 C.ar    1  UNL1       -0.0611
     17 C           0.4311    5.4795    7.4849 C.ar    1  UNL1       -0.0617
     18 C           1.6168    6.1925    7.5832 C.ar    1  UNL1       -0.0611
     19 C           1.9284    7.1431    6.6315 C.ar    1  UNL1       -0.0535
     20 H          -0.9639    9.8335    5.0228 H       1  UNL1        0.0624
     21 H          -2.9942   10.2720    3.7014 H       1  UNL1        0.0618
     22 H          -3.0893    9.6273    1.3244 H       1  UNL1        0.0618
     23 H          -1.1453    8.5415    0.2615 H       1  UNL1        0.0618
     24 H           0.9024    8.1100    1.5933 H       1  UNL1        0.0624
     25 H           0.5645    9.5070    6.9559 H       1  UNL1        0.0624
     26 H           0.7983   11.6501    8.1315 H       1  UNL1        0.0618
     27 H           2.1456   13.4666    7.1502 H       1  UNL1        0.0618
     28 H           3.2675   13.1315    4.9767 H       1  UNL1        0.0618
     29 H           3.0406   10.9705    3.7956 H       1  UNL1        0.0624
     30 H          -0.8057    6.8545    4.6534 H       1  UNL1        0.0624
     31 H          -1.3585    5.1615    6.3547 H       1  UNL1        0.0618
     32 H           0.1873    4.7325    8.2259 H       1  UNL1        0.0618
     33 H           2.2986    5.9990    8.3985 H       1  UNL1        0.0618
     34 H           2.8550    7.7008    6.6868 H       1  UNL1        0.0624
@<TRIPOS>BOND
     1    23     6    1
     2     6     5   ar
     3     6     7   ar
     4    22     5    1
     5    24     7    1
     6     5     4   ar
     7     7     2   ar
     8     4    21    1
     9     4     3   ar
    10     2     3   ar
    11     2     1    1
    12    29    13    1
    13     3    20    1
    14     1     8    1
    15     1    14    1
    16    30    15    1
    17    13     8   ar
    18    13    12   ar
    19    28    12    1
    20     8     9   ar
    21    12    11   ar
    22    15    14   ar
    23    15    16   ar
    24    14    19   ar
    25    31    16    1
    26    16    17   ar
    27     9    25    1
    28     9    10   ar
    29    11    27    1
    30    11    10   ar
    31    19    34    1
    32    19    18   ar
    33    10    26    1
    34    17    18   ar
    35    17    32    1
    36    18    33    1
