@<TRIPOS>MOLECULE
1
 34 36 0 0 0
SMALL
GASTEIGER

@<TRIPOS>ATOM
      1 P           8.2109   11.6051    4.0878 P.3     1  UNL1       -0.0131
      2 C           8.6960   12.1306    5.7752 C.ar    1  UNL1       -0.0147
      3 C           8.7964   11.1537    6.7581 C.ar    1  UNL1       -0.0535
      4 C           9.1583   11.4955    8.0490 C.ar    1  UNL1       -0.0611
      5 C           9.4255   12.8174    8.3635 C.ar    1  UNL1       -0.0617
      6 C           9.3320   13.7956    7.3854 C.ar    1  UNL1       -0.0611
      7 C           8.9703   13.4574    6.0948 C.ar    1  UNL1       -0.0535
      8 C           9.4489   12.5353    3.1119 C.ar    1  UNL1       -0.0147
      9 C          10.6157   11.8628    2.7621 C.ar    1  UNL1       -0.0535
     10 C          11.6121   12.5091    2.0548 C.ar    1  UNL1       -0.0611
     11 C          11.4490   13.8343    1.6844 C.ar    1  UNL1       -0.0617
     12 C          10.2862   14.5071    2.0203 C.ar    1  UNL1       -0.0611
     13 C           9.2887   13.8644    2.7321 C.ar    1  UNL1       -0.0535
     14 C           6.7124   12.6008    3.7890 C.ar    1  UNL1       -0.0147
     15 C           5.9209   13.1222    4.8044 C.ar    1  UNL1       -0.0535
     16 C           4.7233   13.7459    4.4968 C.ar    1  UNL1       -0.0611
     17 C           4.3054   13.8444    3.1806 C.ar    1  UNL1       -0.0617
     18 C           5.0865   13.3157    2.1637 C.ar    1  UNL1       -0.0611
     19 C           6.2790   12.6891    2.4670 C.ar    1  UNL1       -0.0535
     20 H           8.5924   10.1250    6.4909 H       1  UNL1        0.0624
     21 H           9.2350   10.7319    8.8091 H       1  UNL1        0.0618
     22 H           9.7103   13.0873    9.3697 H       1  UNL1        0.0618
     23 H           9.5439   14.8262    7.6311 H       1  UNL1        0.0618
     24 H           8.9011   14.2210    5.3333 H       1  UNL1        0.0624
     25 H          10.7221   10.8232    3.0422 H       1  UNL1        0.0624
     26 H          12.5141   11.9790    1.7873 H       1  UNL1        0.0618
     27 H          12.2242   14.3403    1.1283 H       1  UNL1        0.0618
     28 H          10.1535   15.5379    1.7249 H       1  UNL1        0.0618
     29 H           8.3778   14.3941    2.9759 H       1  UNL1        0.0624
     30 H           6.2412   13.0413    5.8345 H       1  UNL1        0.0624
     31 H           4.1113   14.1516    5.2894 H       1  UNL1        0.0618
     32 H           3.3684   14.3276    2.9464 H       1  UNL1        0.0618
     33 H           4.7585   13.3858    1.1367 H       1  UNL1        0.0618
     34 H           6.8902   12.2541    1.6867 H       1  UNL1        0.0624
@<TRIPOS>BOND
     1    27    11    1
     2    33    18    1
     3    11    12   ar
     4    11    10   ar
     5    34    19    1
     6    28    12    1
     7    26    10    1
     8    12    13   ar
     9    10     9   ar
    10    18    19   ar
    11    18    17   ar
    12    19    14   ar
    13    13    29    1
    14    13     8   ar
    15     9    25    1
    16     9     8   ar
    17    32    17    1
    18     8     1    1
    19    17    16   ar
    20    14     1    1
    21    14    15   ar
    22     1     2    1
    23    16    15   ar
    24    16    31    1
    25    15    30    1
    26    24     7    1
    27     2     7   ar
    28     2     3   ar
    29     7     6   ar
    30    20     3    1
    31     3     4   ar
    32     6    23    1
    33     6     5   ar
    34     4     5   ar
    35     4    21    1
    36     5    22    1
