@<TRIPOS>MOLECULE
1
 13 12 0 0 0
SMALL
GASTEIGER

@<TRIPOS>ATOM
      1 P           2.0692    2.3774    1.5287 P.3     1  UNL1       -0.1154
      2 C           3.4325    3.4484    2.1194 C.3     1  UNL1       -0.0447
      3 C           0.7923    3.6337    1.2057 C.3     1  UNL1       -0.0447
      4 C           2.6469    2.0179   -0.1611 C.3     1  UNL1       -0.0447
      5 H           4.3534    2.8659    2.1750 H       1  UNL1        0.0277
      6 H           3.1832    3.8413    3.1053 H       1  UNL1        0.0277
      7 H           3.5754    4.2769    1.4247 H       1  UNL1        0.0277
      8 H           0.4739    4.0527    2.1591 H       1  UNL1        0.0277
      9 H          -0.0529    3.1451    0.7230 H       1  UNL1        0.0277
     10 H           1.1831    4.4229    0.5617 H       1  UNL1        0.0277
     11 H           1.8457    1.5123   -0.6981 H       1  UNL1        0.0277
     12 H           3.5026    1.3448   -0.0996 H       1  UNL1        0.0277
     13 H           2.9271    2.9322   -0.6853 H       1  UNL1        0.0277
@<TRIPOS>BOND
     1    11     4    1
     2    13     4    1
     3     4    12    1
     4     4     1    1
     5    10     3    1
     6     9     3    1
     7     3     1    1
     8     3     8    1
     9     7     2    1
    10     1     2    1
    11     2     5    1
    12     2     6    1
