@<TRIPOS>MOLECULE
1
 13 12 0 0 0
SMALL
GASTEIGER

@<TRIPOS>ATOM
      1 P          -0.7361    0.7595    3.6485 P.3     1  UNL1       -0.1154
      2 C          -0.9300    0.3779    5.4198 C.3     1  UNL1       -0.0447
      3 C          -1.5818    2.3646    3.5244 C.3     1  UNL1       -0.0447
      4 C          -2.0103   -0.3593    2.9777 C.3     1  UNL1       -0.0447
      5 H          -0.3640    1.0919    6.0116 H       1  UNL1        0.0277
      6 H          -0.5496   -0.6305    5.5877 H       1  UNL1        0.0277
      7 H          -1.9838    0.4248    5.6971 H       1  UNL1        0.0277
      8 H          -1.7266    2.6009    2.4712 H       1  UNL1        0.0277
      9 H          -0.9575    3.1216    3.9942 H       1  UNL1        0.0277
     10 H          -2.5467    2.3089    4.0302 H       1  UNL1        0.0277
     11 H          -1.6319   -1.3803    3.0360 H       1  UNL1        0.0277
     12 H          -2.2100   -0.1120    1.9370 H       1  UNL1        0.0277
     13 H          -2.9310   -0.2743    3.5562 H       1  UNL1        0.0277
@<TRIPOS>BOND
     1    12     4    1
     2     8     3    1
     3     4    11    1
     4     4    13    1
     5     4     1    1
     6     3     1    1
     7     3     9    1
     8     3    10    1
     9     1     2    1
    10     2     6    1
    11     2     7    1
    12     2     5    1
