@<TRIPOS>MOLECULE
1
 20 20 0 0 0
SMALL
GASTEIGER

@<TRIPOS>ATOM
      1 P           5.2862    3.9811   -1.3308 P.3     1  UNL1       -0.0810
      2 C           6.4347    2.6982   -1.9436 C.3     1  UNL1       -0.0405
      3 H           6.9085    3.0098   -2.8761 H       1  UNL1        0.0280
      4 H           5.8524    1.7904   -2.1105 H       1  UNL1        0.0280
      5 H           7.1843    2.4885   -1.1810 H       1  UNL1        0.0280
      6 C           4.2838    4.2510   -2.8453 C.3     1  UNL1       -0.0405
      7 H           3.5904    5.0766   -2.6893 H       1  UNL1        0.0280
      8 H           3.7106    3.3453   -3.0494 H       1  UNL1        0.0280
      9 H           4.9364    4.4771   -3.6901 H       1  UNL1        0.0280
     10 C           6.2863    5.5038   -1.3204 C.ar    1  UNL1       -0.0239
     11 C           7.6652    5.5348   -1.4843 C.ar    1  UNL1       -0.0542
     12 H           8.2184    4.6235   -1.6553 H       1  UNL1        0.0624
     13 C           8.3416    6.7418   -1.4183 C.ar    1  UNL1       -0.0612
     14 H           9.4143    6.7602   -1.5446 H       1  UNL1        0.0618
     15 C           7.6523    7.9189   -1.1856 C.ar    1  UNL1       -0.0617
     16 H           8.1856    8.8562   -1.1322 H       1  UNL1        0.0618
     17 C           6.2772    7.8924   -1.0092 C.ar    1  UNL1       -0.0612
     18 H           5.7378    8.8080   -0.8165 H       1  UNL1        0.0618
     19 C           5.6004    6.6908   -1.0687 C.ar    1  UNL1       -0.0542
     20 H           4.5295    6.6576   -0.9087 H       1  UNL1        0.0624
@<TRIPOS>BOND
     1     9     6    1
     2     8     6    1
     3     3     2    1
     4     6     7    1
     5     6     1    1
     6     4     2    1
     7     2     1    1
     8     2     5    1
     9    12    11    1
    10    14    13    1
    11    11    13   ar
    12    11    10   ar
    13    13    15   ar
    14     1    10    1
    15    10    19   ar
    16    15    16    1
    17    15    17   ar
    18    19    17   ar
    19    19    20    1
    20    17    18    1
