@<TRIPOS>MOLECULE
1
 43 45 0 0 0
SMALL
GASTEIGER

@<TRIPOS>ATOM
      1 P           1.0185    2.2131    3.3484 P.3     1  UNL1       -0.0964
      2 C           2.3408    3.4078    3.9331 C.3     1  UNL1       -0.0200
      3 H           1.8579    4.3259    4.2903 H       1  UNL1        0.0349
      4 C           3.1004    2.7297    5.1018 C.3     1  UNL1       -0.0463
      5 H           2.8251    3.1784    6.0571 H       1  UNL1        0.0271
      6 H           2.8494    1.6452    5.1622 H       1  UNL1        0.0271
      7 C           4.5996    2.9111    4.8239 C.3     1  UNL1       -0.0525
      8 H           5.1562    3.1513    5.7294 H       1  UNL1        0.0265
      9 H           5.0218    1.9961    4.4012 H       1  UNL1        0.0265
     10 C           4.6643    4.0311    3.7892 C.3     1  UNL1       -0.0525
     11 H           4.5779    5.0024    4.2805 H       1  UNL1        0.0265
     12 H           5.5894    4.0161    3.2140 H       1  UNL1        0.0265
     13 C           3.4352    3.7765    2.9212 C.3     1  UNL1       -0.0463
     14 H           3.6352    2.9430    2.2466 H       1  UNL1        0.0271
     15 H           3.1747    4.6489    2.3244 H       1  UNL1        0.0271
     16 C           0.4663    2.7555    1.6531 C.3     1  UNL1       -0.0200
     17 H          -0.5183    2.2827    1.5627 H       1  UNL1        0.0349
     18 C           1.3682    2.2248    0.5168 C.3     1  UNL1       -0.0463
     19 H           2.2186    1.6578    0.8984 H       1  UNL1        0.0271
     20 H           0.7997    1.5477   -0.1211 H       1  UNL1        0.0271
     21 C           1.7984    3.4543   -0.2858 C.3     1  UNL1       -0.0525
     22 H           2.7327    3.8617    0.1013 H       1  UNL1        0.0265
     23 H           1.9433    3.2235   -1.3402 H       1  UNL1        0.0265
     24 C           0.6636    4.4498   -0.0605 C.3     1  UNL1       -0.0525
     25 H           0.9498    5.4741   -0.2963 H       1  UNL1        0.0265
     26 H          -0.1925    4.1798   -0.6809 H       1  UNL1        0.0265
     27 C           0.3119    4.2677    1.4152 C.3     1  UNL1       -0.0463
     28 H          -0.6971    4.6137    1.6369 H       1  UNL1        0.0271
     29 H           1.0071    4.8363    2.0325 H       1  UNL1        0.0271
     30 C          -0.4177    2.8701    4.3261 C.3     1  UNL1       -0.0200
     31 H          -0.5637    3.9207    4.0459 H       1  UNL1        0.0349
     32 C          -1.7060    2.0862    4.0634 C.3     1  UNL1       -0.0463
     33 H          -2.1988    2.3735    3.1355 H       1  UNL1        0.0271
     34 H          -1.4766    1.0172    4.0266 H       1  UNL1        0.0271
     35 C          -2.5569    2.3958    5.2896 C.3     1  UNL1       -0.0525
     36 H          -2.9623    3.4069    5.2116 H       1  UNL1        0.0265
     37 H          -3.3862    1.7009    5.4094 H       1  UNL1        0.0265
     38 C          -1.5569    2.3105    6.4421 C.3     1  UNL1       -0.0525
     39 H          -1.4838    1.2787    6.7849 H       1  UNL1        0.0265
     40 H          -1.8556    2.9268    7.2890 H       1  UNL1        0.0265
     41 C          -0.2099    2.7611    5.8487 C.3     1  UNL1       -0.0463
     42 H           0.5583    2.0156    6.0799 H       1  UNL1        0.0271
     43 H           0.1120    3.7144    6.2688 H       1  UNL1        0.0271
@<TRIPOS>BOND
     1    23    21    1
     2    26    24    1
     3    25    24    1
     4    21    24    1
     5    21    22    1
     6    21    18    1
     7    20    18    1
     8    24    27    1
     9    18    19    1
    10    18    16    1
    11    27    28    1
    12    27    16    1
    13    27    29    1
    14    17    16    1
    15    16     1    1
    16    14    13    1
    17    15    13    1
    18    13    10    1
    19    13     2    1
    20    33    32    1
    21    12    10    1
    22     1     2    1
    23     1    30    1
    24    10    11    1
    25    10     7    1
    26     2     3    1
    27     2     4    1
    28    34    32    1
    29    31    30    1
    30    32    30    1
    31    32    35    1
    32    30    41    1
    33     9     7    1
    34     7     4    1
    35     7     8    1
    36     4     6    1
    37     4     5    1
    38    36    35    1
    39    35    37    1
    40    35    38    1
    41    41    42    1
    42    41    43    1
    43    41    38    1
    44    38    39    1
    45    38    40    1
