@<TRIPOS>MOLECULE
1
 20 20 0 0 0
SMALL
GASTEIGER

@<TRIPOS>ATOM
      1 P           2.8160    6.1485   17.4521 P.3     1  UNL1       -0.0810
      2 C           3.9451    6.9269   18.6851 C.ar    1  UNL1       -0.0239
      3 C           4.9333    7.7560   18.1631 C.ar    1  UNL1       -0.0542
      4 H           4.9795    7.8968   17.0930 H       1  UNL1        0.0624
      5 C           1.9479    4.9099   18.4941 C.3     1  UNL1       -0.0405
      6 H           1.1458    5.3725   19.0614 H       1  UNL1        0.0280
      7 H           2.6452    4.4014   19.1597 H       1  UNL1        0.0280
      8 H           1.5127    4.1833   17.8118 H       1  UNL1        0.0280
      9 C           4.0693    4.9742   16.7749 C.3     1  UNL1       -0.0405
     10 H           3.5599    4.2597   16.1319 H       1  UNL1        0.0280
     11 H           4.5698    4.4449   17.5868 H       1  UNL1        0.0280
     12 H           4.8089    5.5125   16.1877 H       1  UNL1        0.0280
     13 C           5.8475    8.3876   18.9840 C.ar    1  UNL1       -0.0612
     14 H           6.6168    9.0163   18.5575 H       1  UNL1        0.0618
     15 C           3.8933    6.7464   20.0622 C.ar    1  UNL1       -0.0542
     16 H           3.1562    6.0956   20.5076 H       1  UNL1        0.0624
     17 C           4.7969    7.3926   20.8894 C.ar    1  UNL1       -0.0612
     18 H           4.7386    7.2472   21.9587 H       1  UNL1        0.0618
     19 C           5.7751    8.2136   20.3566 C.ar    1  UNL1       -0.0617
     20 H           6.4796    8.7120   21.0060 H       1  UNL1        0.0618
@<TRIPOS>BOND
     1    10     9    1
     2    12     9    1
     3     9     1    1
     4     9    11    1
     5     4     3    1
     6     1     5    1
     7     1     2    1
     8     8     5    1
     9     3     2   ar
    10     3    13   ar
    11     5     6    1
    12     5     7    1
    13    14    13    1
    14     2    15   ar
    15    13    19   ar
    16    15    16    1
    17    15    17   ar
    18    19    17   ar
    19    19    20    1
    20    17    18    1
