@<TRIPOS>MOLECULE
1
 31 30 0 0 0
SMALL
GASTEIGER

@<TRIPOS>ATOM
      1 P          10.4579    5.6342    3.6646 P.3     1  UNL1       -0.0980
      2 C          12.1833    7.2896    5.1775 C.3     1  UNL1       -0.0587
      3 H          12.3713    7.7179    6.1625 H       1  UNL1        0.0236
      4 H          11.7401    8.0624    4.5518 H       1  UNL1        0.0236
      5 H          13.1446    7.0171    4.7519 H       1  UNL1        0.0236
      6 C           9.3697    4.2063    4.2334 C.3     1  UNL1       -0.0257
      7 H          10.1243    3.4721    4.5418 H       1  UNL1        0.0344
      8 C          11.2849    6.0588    5.3025 C.3     1  UNL1       -0.0257
      9 H          10.4858    6.2875    6.0152 H       1  UNL1        0.0344
     10 C           8.5972    3.5705    3.0795 C.3     1  UNL1       -0.0587
     11 H           8.2893    2.5637    3.3575 H       1  UNL1        0.0236
     12 H           9.2245    3.5101    2.1947 H       1  UNL1        0.0236
     13 H           7.7036    4.1375    2.8369 H       1  UNL1        0.0236
     14 C          12.1042    4.8924    5.8477 C.3     1  UNL1       -0.0587
     15 H          12.6651    5.2148    6.7253 H       1  UNL1        0.0236
     16 H          12.8152    4.5426    5.1025 H       1  UNL1        0.0236
     17 H          11.4724    4.0587    6.1438 H       1  UNL1        0.0236
     18 C           8.4274    4.4451    5.4107 C.3     1  UNL1       -0.0587
     19 H           8.0173    3.4879    5.7325 H       1  UNL1        0.0236
     20 H           7.5909    5.0750    5.1190 H       1  UNL1        0.0236
     21 H           8.9269    4.8928    6.2660 H       1  UNL1        0.0236
     22 C           9.3573    7.1512    3.4491 C.3     1  UNL1       -0.0257
     23 H          10.0342    7.8747    2.9738 H       1  UNL1        0.0344
     24 C           8.7731    7.8277    4.6882 C.3     1  UNL1       -0.0587
     25 H           8.1625    8.6715    4.3650 H       1  UNL1        0.0236
     26 H           9.5445    8.2162    5.3478 H       1  UNL1        0.0236
     27 H           8.1363    7.1569    5.2558 H       1  UNL1        0.0236
     28 C           8.2481    6.8458    2.4448 C.3     1  UNL1       -0.0587
     29 H           7.8698    7.7692    2.0074 H       1  UNL1        0.0236
     30 H           7.4173    6.3433    2.9337 H       1  UNL1        0.0236
     31 H           8.6224    6.2092    1.6460 H       1  UNL1        0.0236
@<TRIPOS>BOND
     1    31    28    1
     2    29    28    1
     3    12    10    1
     4    28    30    1
     5    28    22    1
     6    13    10    1
     7    23    22    1
     8    10    11    1
     9    10     6    1
    10    22     1    1
    11    22    24    1
    12     1     6    1
    13     1     8    1
    14     6     7    1
    15     6    18    1
    16    25    24    1
    17     4     2    1
    18    24    27    1
    19    24    26    1
    20     5     2    1
    21    16    14    1
    22    20    18    1
    23     2     8    1
    24     2     3    1
    25     8    14    1
    26     8     9    1
    27    18    19    1
    28    18    21    1
    29    14    17    1
    30    14    15    1
