@<TRIPOS>MOLECULE
1
 31 30 0 0 0
SMALL
GASTEIGER

@<TRIPOS>ATOM
      1 P           6.1586    7.6510    9.7192 P.3     1  UNL1       -0.0980
      2 C           6.9660    8.8316   10.9532 C.3     1  UNL1       -0.0257
      3 H           6.3270    8.7199   11.8415 H       1  UNL1        0.0344
      4 C           6.9916    6.0404   10.2185 C.3     1  UNL1       -0.0257
      5 H           8.0705    6.2145   10.2695 H       1  UNL1        0.0344
      6 C           8.4045    8.5699   11.3962 C.3     1  UNL1       -0.0587
      7 H           8.7028    9.3614   12.0845 H       1  UNL1        0.0236
      8 H           9.0965    8.5802   10.5605 H       1  UNL1        0.0236
      9 H           8.5062    7.6245   11.9222 H       1  UNL1        0.0236
     10 C           8.4947    7.9392    7.9925 C.3     1  UNL1       -0.0587
     11 H           8.8133    7.8914    6.9512 H       1  UNL1        0.0236
     12 H           8.9427    7.0975    8.5142 H       1  UNL1        0.0236
     13 H           8.8852    8.8639    8.4099 H       1  UNL1        0.0236
     14 C           6.4101    9.1321    7.3082 C.3     1  UNL1       -0.0587
     15 H           6.6569    9.0625    6.2496 H       1  UNL1        0.0236
     16 H           6.8255   10.0602    7.6892 H       1  UNL1        0.0236
     17 H           5.3280    9.1653    7.4101 H       1  UNL1        0.0236
     18 C           6.5037    5.6022   11.5982 C.3     1  UNL1       -0.0587
     19 H           7.1281    4.7942   11.9806 H       1  UNL1        0.0236
     20 H           5.4826    5.2332   11.5385 H       1  UNL1        0.0236
     21 H           6.5287    6.4198   12.3172 H       1  UNL1        0.0236
     22 C           6.9693    7.9177    8.0455 C.3     1  UNL1       -0.0257
     23 H           6.6123    7.0333    7.5003 H       1  UNL1        0.0344
     24 C           6.8209   10.2734   10.4714 C.3     1  UNL1       -0.0587
     25 H           6.9203   10.9646   11.3083 H       1  UNL1        0.0236
     26 H           5.8466   10.4240   10.0090 H       1  UNL1        0.0236
     27 H           7.5933   10.5158    9.7457 H       1  UNL1        0.0236
     28 C           6.7142    4.9384    9.2000 C.3     1  UNL1       -0.0587
     29 H           6.9679    3.9660    9.6222 H       1  UNL1        0.0236
     30 H           7.3006    5.0728    8.2945 H       1  UNL1        0.0236
     31 H           5.6590    4.9305    8.9327 H       1  UNL1        0.0236
@<TRIPOS>BOND
     1    15    14    1
     2    11    10    1
     3    14    17    1
     4    14    16    1
     5    14    22    1
     6    23    22    1
     7    10    22    1
     8    10    13    1
     9    10    12    1
    10    22     1    1
    11    30    28    1
    12    31    28    1
    13    28    29    1
    14    28     4    1
    15     1     4    1
    16     1     2    1
    17    27    24    1
    18    26    24    1
    19     4     5    1
    20     4    18    1
    21    24     2    1
    22    24    25    1
    23     8     6    1
    24     2     6    1
    25     2     3    1
    26     6     9    1
    27     6     7    1
    28    20    18    1
    29    18    19    1
    30    18    21    1
