@<TRIPOS>MOLECULE
1
 31 30 0 0 0
SMALL
GASTEIGER

@<TRIPOS>ATOM
      1 P          25.7227   -2.3521   17.8040 P.3     1  UNL1       -0.0980
      2 C          24.1742   -2.8519   16.8500 C.3     1  UNL1       -0.0257
      3 H          23.4418   -2.0918   17.1604 H       1  UNL1        0.0344
      4 C          26.6785   -3.1450   20.3247 C.3     1  UNL1       -0.0587
      5 H          26.4156   -3.3219   21.3673 H       1  UNL1        0.0236
      6 H          27.1578   -2.1710   20.2504 H       1  UNL1        0.0236
      7 H          27.4039   -3.8995   20.0308 H       1  UNL1        0.0236
      8 C          25.4264   -3.2037   19.4501 C.3     1  UNL1       -0.0257
      9 H          25.1869   -4.2507   19.2369 H       1  UNL1        0.0344
     10 C          27.1809   -3.3560   17.1879 C.3     1  UNL1       -0.0257
     11 H          27.9243   -3.1440   17.9669 H       1  UNL1        0.0344
     12 C          24.2382   -2.5858   20.1879 C.3     1  UNL1       -0.0587
     13 H          23.8823   -3.2669   20.9613 H       1  UNL1        0.0236
     14 H          23.4066   -2.3717   19.5176 H       1  UNL1        0.0236
     15 H          24.5304   -1.6615   20.6767 H       1  UNL1        0.0236
     16 C          23.5555   -4.2204   17.1241 C.3     1  UNL1       -0.0587
     17 H          22.6857   -4.3457   16.4785 H       1  UNL1        0.0236
     18 H          23.2180   -4.3175   18.1526 H       1  UNL1        0.0236
     19 H          24.2486   -5.0270   16.9077 H       1  UNL1        0.0236
     20 C          24.4114   -2.6667   15.3529 C.3     1  UNL1       -0.0587
     21 H          23.4622   -2.5633   14.8279 H       1  UNL1        0.0236
     22 H          24.9309   -3.5278   14.9400 H       1  UNL1        0.0236
     23 H          25.0094   -1.7762   15.1702 H       1  UNL1        0.0236
     24 C          27.7671   -2.8155   15.8859 C.3     1  UNL1       -0.0587
     25 H          28.7455   -3.2638   15.7208 H       1  UNL1        0.0236
     26 H          27.8959   -1.7387   15.9503 H       1  UNL1        0.0236
     27 H          27.1409   -3.0447   15.0288 H       1  UNL1        0.0236
     28 C          26.9854   -4.8662   17.0815 C.3     1  UNL1       -0.0587
     29 H          27.9545   -5.3360   16.9163 H       1  UNL1        0.0236
     30 H          26.3520   -5.1181   16.2338 H       1  UNL1        0.0236
     31 H          26.5588   -5.2991   17.9828 H       1  UNL1        0.0236
@<TRIPOS>BOND
     1    21    20    1
     2    22    20    1
     3    27    24    1
     4    23    20    1
     5    20     2    1
     6    25    24    1
     7    24    26    1
     8    24    10    1
     9    30    28    1
    10    17    16    1
    11     2    16    1
    12     2     3    1
    13     2     1    1
    14    19    16    1
    15    29    28    1
    16    28    10    1
    17    28    31    1
    18    16    18    1
    19    10     1    1
    20    10    11    1
    21     1     8    1
    22     9     8    1
    23     8    12    1
    24     8     4    1
    25    14    12    1
    26     7     4    1
    27    12    15    1
    28    12    13    1
    29     6     4    1
    30     4     5    1
