@<TRIPOS>MOLECULE
1
 25 24 0 0 0
SMALL
GASTEIGER

@<TRIPOS>ATOM
      1 P           7.2031    6.8099   11.8796 P.3     1  UNL1       -0.1038
      2 C           4.6273    6.2621   13.1207 C.3     1  UNL1       -0.0587
      3 H           3.6586    6.6928   13.3718 H       1  UNL1        0.0236
      4 H           5.1154    5.9843   14.0507 H       1  UNL1        0.0236
      5 H           4.4492    5.3638   12.5346 H       1  UNL1        0.0236
      6 C           6.9428    5.0666   11.3386 C.3     1  UNL1       -0.0438
      7 H           6.6218    4.4480   12.1757 H       1  UNL1        0.0278
      8 H           7.8782    4.6803   10.9401 H       1  UNL1        0.0278
      9 H           6.1871    5.0431   10.5561 H       1  UNL1        0.0278
     10 C           7.9145    6.4667   13.5780 C.3     1  UNL1       -0.0261
     11 H           7.1961    5.8499   14.1309 H       1  UNL1        0.0343
     12 C           5.4385    7.2856   12.3332 C.3     1  UNL1       -0.0261
     13 H           5.5632    8.1850   12.9462 H       1  UNL1        0.0343
     14 C           9.2233    5.6976   13.4338 C.3     1  UNL1       -0.0587
     15 H           9.7247    5.6220   14.3971 H       1  UNL1        0.0236
     16 H           9.8763    6.2321   12.7447 H       1  UNL1        0.0236
     17 H           9.0586    4.6914   13.0561 H       1  UNL1        0.0236
     18 C           4.6884    7.6796   11.0647 C.3     1  UNL1       -0.0587
     19 H           3.7678    8.2077   11.3083 H       1  UNL1        0.0236
     20 H           4.4256    6.7965   10.4846 H       1  UNL1        0.0236
     21 H           5.3101    8.3347   10.4511 H       1  UNL1        0.0236
     22 C           8.1547    7.7692   14.3290 C.3     1  UNL1       -0.0587
     23 H           8.5637    7.5665   15.3177 H       1  UNL1        0.0236
     24 H           7.2365    8.3389   14.4503 H       1  UNL1        0.0236
     25 H           8.8636    8.3783   13.7715 H       1  UNL1        0.0236
@<TRIPOS>BOND
     1    21    18    1
     2    20    18    1
     3     9     6    1
     4     8     6    1
     5    18    19    1
     6    18    12    1
     7     6     1    1
     8     6     7    1
     9     1    12    1
    10     1    10    1
    11    12    13    1
    12    12     2    1
    13     5     2    1
    14    16    14    1
    15    17    14    1
    16     2     3    1
    17     2     4    1
    18    14    10    1
    19    14    15    1
    20    10    11    1
    21    10    22    1
    22    25    22    1
    23    22    24    1
    24    22    23    1
