@<TRIPOS>MOLECULE
1
 34 36 0 0 0
SMALL
GASTEIGER

@<TRIPOS>ATOM
      1 P          19.5382    0.8359    3.3885 P.3     1  UNL1       -0.0131
      2 C          21.1080   -0.0873    3.4946 C.ar    1  UNL1       -0.0147
      3 C          21.3514   -0.9042    4.5893 C.ar    1  UNL1       -0.0535
      4 H          20.6166   -0.9585    5.3801 H       1  UNL1        0.0624
      5 C          22.5261   -1.6305    4.6772 C.ar    1  UNL1       -0.0611
      6 H          22.7059   -2.2612    5.5352 H       1  UNL1        0.0618
      7 C          23.4673   -1.5428    3.6667 C.ar    1  UNL1       -0.0617
      8 H          24.3853   -2.1072    3.7315 H       1  UNL1        0.0618
      9 C          23.2317   -0.7285    2.5684 C.ar    1  UNL1       -0.0611
     10 H          23.9657   -0.6617    1.7790 H       1  UNL1        0.0618
     11 C          22.0597   -0.0029    2.4782 C.ar    1  UNL1       -0.0535
     12 H          21.8761    0.6339    1.6233 H       1  UNL1        0.0624
     13 C          18.7332    0.0706    1.9335 C.ar    1  UNL1       -0.0147
     14 C          19.2821   -0.9770    1.2035 C.ar    1  UNL1       -0.0535
     15 H          20.2495   -1.3796    1.4665 H       1  UNL1        0.0624
     16 C          18.5837   -1.5215    0.1385 C.ar    1  UNL1       -0.0611
     17 H          19.0165   -2.3380   -0.4202 H       1  UNL1        0.0618
     18 C          17.3376   -1.0294   -0.2085 C.ar    1  UNL1       -0.0617
     19 H          16.7992   -1.4575   -1.0407 H       1  UNL1        0.0618
     20 C          16.7775    0.0038    0.5261 C.ar    1  UNL1       -0.0611
     21 H          15.7980    0.3811    0.2690 H       1  UNL1        0.0618
     22 C          17.4652    0.5424    1.5963 C.ar    1  UNL1       -0.0535
     23 H          17.0218    1.3243    2.2014 H       1  UNL1        0.0624
     24 C          20.1509    2.4120    2.6865 C.ar    1  UNL1       -0.0147
     25 C          19.4433    3.1392    1.7354 C.ar    1  UNL1       -0.0535
     26 H          18.5283    2.7456    1.3197 H       1  UNL1        0.0624
     27 C          19.9174    4.3661    1.3041 C.ar    1  UNL1       -0.0611
     28 H          19.3639    4.9225    0.5621 H       1  UNL1        0.0618
     29 C          21.0983    4.8789    1.8127 C.ar    1  UNL1       -0.0617
     30 H          21.4645    5.8341    1.4680 H       1  UNL1        0.0618
     31 C          21.8094    4.1597    2.7601 C.ar    1  UNL1       -0.0611
     32 H          22.7329    4.5528    3.1588 H       1  UNL1        0.0618
     33 C          21.3346    2.9393    3.2002 C.ar    1  UNL1       -0.0535
     34 H          21.8826    2.3786    3.9451 H       1  UNL1        0.0624
@<TRIPOS>BOND
     1    19    18    1
     2    17    16    1
     3    18    16   ar
     4    18    20   ar
     5    16    14   ar
     6    21    20    1
     7    20    22   ar
     8    28    27    1
     9    14    15    1
    10    14    13   ar
    11    27    25   ar
    12    27    29   ar
    13    26    25    1
    14    30    29    1
    15    22    13   ar
    16    22    23    1
    17    12    11    1
    18    25    24   ar
    19    10     9    1
    20    29    31   ar
    21    13     1    1
    22    11     9   ar
    23    11     2   ar
    24     9     7   ar
    25    24    33   ar
    26    24     1    1
    27    31    32    1
    28    31    33   ar
    29    33    34    1
    30     1     2    1
    31     2     3   ar
    32     7     8    1
    33     7     5   ar
    34     3     5   ar
    35     3     4    1
    36     5     6    1
