@<TRIPOS>MOLECULE
1
 34 36 0 0 0
SMALL
GASTEIGER

@<TRIPOS>ATOM
      1 P          19.2607    1.9530    6.6922 P.3     1  UNL1       -0.0131
      2 C          18.2569    2.2680    8.1945 C.ar    1  UNL1       -0.0147
      3 C          16.9263    2.6154    7.9789 C.ar    1  UNL1       -0.0535
      4 H          16.5599    2.6593    6.9589 H       1  UNL1        0.0624
      5 C          16.0882    2.8878    9.0430 C.ar    1  UNL1       -0.0611
      6 H          15.0540    3.1453    8.8642 H       1  UNL1        0.0618
      7 C          16.5758    2.8235   10.3385 C.ar    1  UNL1       -0.0617
      8 H          15.9229    3.0262   11.1741 H       1  UNL1        0.0618
      9 C          17.9016    2.4907   10.5605 C.ar    1  UNL1       -0.0611
     10 H          18.2830    2.4383   11.5695 H       1  UNL1        0.0618
     11 C          18.7431    2.2153    9.4962 C.ar    1  UNL1       -0.0535
     12 H          19.7715    1.9425    9.6865 H       1  UNL1        0.0624
     13 C          20.7214    1.0745    7.3333 C.ar    1  UNL1       -0.0147
     14 C          20.5569   -0.0335    8.1619 C.ar    1  UNL1       -0.0535
     15 H          19.5668   -0.2970    8.5112 H       1  UNL1        0.0624
     16 C          21.6511   -0.7857    8.5463 C.ar    1  UNL1       -0.0611
     17 H          21.5173   -1.6368    9.1982 H       1  UNL1        0.0618
     18 C          22.9175   -0.4508    8.0934 C.ar    1  UNL1       -0.0617
     19 H          23.7708   -1.0408    8.3922 H       1  UNL1        0.0618
     20 C          23.0864    0.6398    7.2560 C.ar    1  UNL1       -0.0611
     21 H          24.0718    0.8983    6.8976 H       1  UNL1        0.0618
     22 C          21.9949    1.3969    6.8734 C.ar    1  UNL1       -0.0535
     23 H          22.1232    2.2503    6.2219 H       1  UNL1        0.0624
     24 C          19.9246    3.6526    6.5104 C.ar    1  UNL1       -0.0147
     25 C          20.6200    4.2537    7.5575 C.ar    1  UNL1       -0.0535
     26 H          20.8120    3.7014    8.4660 H       1  UNL1        0.0624
     27 C          21.0750    5.5529    7.4325 C.ar    1  UNL1       -0.0611
     28 H          21.6182    6.0115    8.2456 H       1  UNL1        0.0618
     29 C          20.8373    6.2684    6.2680 C.ar    1  UNL1       -0.0617
     30 H          21.1925    7.2839    6.1763 H       1  UNL1        0.0618
     31 C          20.1474    5.6755    5.2251 C.ar    1  UNL1       -0.0611
     32 H          19.9614    6.2204    4.3103 H       1  UNL1        0.0618
     33 C          19.6937    4.3723    5.3464 C.ar    1  UNL1       -0.0535
     34 H          19.1578    3.8941    4.5404 H       1  UNL1        0.0624
@<TRIPOS>BOND
     1    32    31    1
     2    34    33    1
     3    31    33   ar
     4    31    29   ar
     5    33    24   ar
     6    30    29    1
     7    23    22    1
     8    29    27   ar
     9    24     1    1
    10    24    25   ar
    11     1    13    1
    12     1     2    1
    13    22    20   ar
    14    22    13   ar
    15    21    20    1
    16     4     3    1
    17    20    18   ar
    18    13    14   ar
    19    27    25   ar
    20    27    28    1
    21    25    26    1
    22     3     2   ar
    23     3     5   ar
    24    18    19    1
    25    18    16   ar
    26    14    15    1
    27    14    16   ar
    28     2    11   ar
    29    16    17    1
    30     6     5    1
    31     5     7   ar
    32    11    12    1
    33    11     9   ar
    34     7     9   ar
    35     7     8    1
    36     9    10    1
