@<TRIPOS>MOLECULE
1
 34 36 0 0 0
SMALL
GASTEIGER

@<TRIPOS>ATOM
      1 P           5.8943   16.4154    3.5436 P.3     1  UNL1       -0.0131
      2 C           7.5515   16.5470    4.2951 C.ar    1  UNL1       -0.0147
      3 C           7.6278   17.2153    5.5170 C.ar    1  UNL1       -0.0535
      4 H           6.7232   17.5973    5.9677 H       1  UNL1        0.0624
      5 C           8.8517   17.4074    6.1274 C.ar    1  UNL1       -0.0611
      6 H           8.9041   17.9311    7.0703 H       1  UNL1        0.0618
      7 C          10.0101   16.9448    5.5229 C.ar    1  UNL1       -0.0617
      8 H          10.9684   17.1044    5.9950 H       1  UNL1        0.0618
      9 C           9.9381   16.2868    4.3080 C.ar    1  UNL1       -0.0611
     10 H          10.8400   15.9311    3.8308 H       1  UNL1        0.0618
     11 C           8.7147   16.0893    3.6899 C.ar    1  UNL1       -0.0535
     12 H           8.6739   15.5883    2.7332 H       1  UNL1        0.0624
     13 C           5.0665   15.2557    4.7016 C.ar    1  UNL1       -0.0147
     14 C           3.7919   14.8229    4.3475 C.ar    1  UNL1       -0.0535
     15 H           3.3294   15.2138    3.4535 H       1  UNL1        0.0624
     16 C           3.1235   13.8976    5.1244 C.ar    1  UNL1       -0.0611
     17 H           2.1396   13.5589    4.8333 H       1  UNL1        0.0618
     18 C           3.7170   13.3968    6.2724 C.ar    1  UNL1       -0.0617
     19 H           3.1920   12.6800    6.8868 H       1  UNL1        0.0618
     20 C           4.9889   13.8127    6.6234 C.ar    1  UNL1       -0.0611
     21 H           5.4611   13.4193    7.5122 H       1  UNL1        0.0618
     22 C           5.6674   14.7302    5.8380 C.ar    1  UNL1       -0.0535
     23 H           6.6666   15.0325    6.1156 H       1  UNL1        0.0624
     24 C           6.1307   15.1628    2.2215 C.ar    1  UNL1       -0.0147
     25 C           5.6680   15.3763    0.9308 C.ar    1  UNL1       -0.0535
     26 H           5.1873   16.3140    0.6860 H       1  UNL1        0.0624
     27 C           5.8115   14.3960   -0.0367 C.ar    1  UNL1       -0.0611
     28 H           5.4502   14.5745   -1.0387 H       1  UNL1        0.0618
     29 C           6.4131   13.1912    0.2813 C.ar    1  UNL1       -0.0617
     30 H           6.5262   12.4261   -0.4725 H       1  UNL1        0.0618
     31 C           6.8630   12.9637    1.5732 C.ar    1  UNL1       -0.0611
     32 H           7.3238   12.0201    1.8269 H       1  UNL1        0.0618
     33 C           6.7183   13.9392    2.5402 C.ar    1  UNL1       -0.0535
     34 H           7.0581   13.7565    3.5506 H       1  UNL1        0.0624
@<TRIPOS>BOND
     1    28    27    1
     2    30    29    1
     3    27    29   ar
     4    27    25   ar
     5    29    31   ar
     6    26    25    1
     7    25    24   ar
     8    31    32    1
     9    31    33   ar
    10    24    33   ar
    11    24     1    1
    12    33    34    1
    13    12    11    1
    14    15    14    1
    15     1     2    1
    16     1    13    1
    17    11     2   ar
    18    11     9   ar
    19    10     9    1
    20     2     3   ar
    21     9     7   ar
    22    14    13   ar
    23    14    16   ar
    24    13    22   ar
    25    17    16    1
    26    16    18   ar
    27     3     4    1
    28     3     5   ar
    29     7     8    1
    30     7     5   ar
    31    22    23    1
    32    22    20   ar
    33     5     6    1
    34    18    20   ar
    35    18    19    1
    36    20    21    1
