@<TRIPOS>MOLECULE
1
 34 36 0 0 0
SMALL
GASTEIGER

@<TRIPOS>ATOM
      1 P           3.7433   20.6100    2.8422 P.3     1  UNL1       -0.0131
      2 C           4.6196   22.0648    3.4921 C.ar    1  UNL1       -0.0147
      3 C           4.0833   22.9462    4.4200 C.ar    1  UNL1       -0.0535
      4 H           3.0766   22.8036    4.7796 H       1  UNL1        0.0624
      5 C           4.8395   24.0105    4.8823 C.ar    1  UNL1       -0.0611
      6 H           4.4166   24.6907    5.6082 H       1  UNL1        0.0618
      7 C           6.1307   24.2037    4.4223 C.ar    1  UNL1       -0.0617
      8 H           6.7173   25.0329    4.7899 H       1  UNL1        0.0618
      9 C           6.6696   23.3308    3.4905 C.ar    1  UNL1       -0.0611
     10 H           7.6774   23.4741    3.1302 H       1  UNL1        0.0618
     11 C           5.9215   22.2637    3.0325 C.ar    1  UNL1       -0.0535
     12 H           6.3431   21.5682    2.3186 H       1  UNL1        0.0624
     13 C           1.9710   20.9407    3.1584 C.ar    1  UNL1       -0.0147
     14 C           1.1041   19.9404    3.5721 C.ar    1  UNL1       -0.0535
     15 H           1.4931   18.9558    3.7729 H       1  UNL1        0.0624
     16 C          -0.2430   20.2111    3.7435 C.ar    1  UNL1       -0.0611
     17 H          -0.9112   19.4280    4.0725 H       1  UNL1        0.0618
     18 C          -0.7352   21.4807    3.4948 C.ar    1  UNL1       -0.0617
     19 H          -1.7848   21.6937    3.6357 H       1  UNL1        0.0618
     20 C           0.1212   22.4764    3.0519 C.ar    1  UNL1       -0.0611
     21 H          -0.2612   23.4645    2.8398 H       1  UNL1        0.0618
     22 C           1.4650   22.2070    2.8720 C.ar    1  UNL1       -0.0535
     23 H           2.1262   22.9798    2.5030 H       1  UNL1        0.0624
     24 C           3.5907   21.0781    1.0587 C.ar    1  UNL1       -0.0147
     25 C           4.1542   22.1967    0.4606 C.ar    1  UNL1       -0.0535
     26 H           4.7728   22.8718    1.0336 H       1  UNL1        0.0624
     27 C           3.9291   22.4602   -0.8810 C.ar    1  UNL1       -0.0611
     28 H           4.3796   23.3320   -1.3335 H       1  UNL1        0.0618
     29 C           3.1353   21.6190   -1.6386 C.ar    1  UNL1       -0.0617
     30 H           2.9662   21.8273   -2.6847 H       1  UNL1        0.0618
     31 C           2.5545   20.5086   -1.0465 C.ar    1  UNL1       -0.0611
     32 H           1.9276   19.8487   -1.6281 H       1  UNL1        0.0618
     33 C           2.7794   20.2453    0.2894 C.ar    1  UNL1       -0.0535
     34 H           2.3218   19.3804    0.7525 H       1  UNL1        0.0624
@<TRIPOS>BOND
     1    30    29    1
     2    29    31   ar
     3    29    27   ar
     4    32    31    1
     5    28    27    1
     6    31    33   ar
     7    27    25   ar
     8    33    34    1
     9    33    24   ar
    10    25    26    1
    11    25    24   ar
    12    24     1    1
    13    12    11    1
    14    23    22    1
    15    21    20    1
    16     1    13    1
    17     1     2    1
    18    22    20   ar
    19    22    13   ar
    20    11     9   ar
    21    11     2   ar
    22    20    18   ar
    23    10     9    1
    24    13    14   ar
    25     9     7   ar
    26     2     3   ar
    27    18    19    1
    28    18    16   ar
    29    14    16   ar
    30    14    15    1
    31    16    17    1
    32     3     4    1
    33     3     5   ar
    34     7     8    1
    35     7     5   ar
    36     5     6    1
