@<TRIPOS>MOLECULE
1
 86 87 0 0 0
SMALL
GASTEIGER

@<TRIPOS>ATOM
      1 P           6.7765    2.5977   11.6304 P.3     1  UNL1        0.0000
      2 P           4.3434    3.5472   13.0062 P.3     1  UNL1        0.0000
      3 SI          7.1787    1.8127    8.6623 Si      1  UNL1        0.0000
      4 SI          8.6107    0.1818   11.1607 Si      1  UNL1        0.0000
      5 SI          1.4380    3.8091   14.1492 Si      1  UNL1        0.0000
      6 SI          2.4574    0.8751   12.9657 Si      1  UNL1        0.0000
      7 N           6.4292    1.8235   13.0570 N.2     1  UNL1        0.0000
      8 N           4.7633    3.5932   10.1515 N.2     1  UNL1        0.0000
      9 C           7.1243    1.2150   10.4964 C.3     1  UNL1        0.0000
     10 H           6.2450    0.5713   10.5894 H       1  UNL1        0.0000
     11 C           5.4984    1.3189    7.8977 C.3     1  UNL1        0.0000
     12 H           4.6750    1.7338    8.4668 H       1  UNL1        0.0000
     13 H           5.3815    0.2389    7.8789 H       1  UNL1        0.0000
     14 H           5.4128    1.6721    6.8750 H       1  UNL1        0.0000
     15 C           7.5341    3.6709    8.5004 C.3     1  UNL1        0.0000
     16 H           7.2741    4.0343    7.5106 H       1  UNL1        0.0000
     17 H           8.5863    3.8862    8.6543 H       1  UNL1        0.0000
     18 H           6.9588    4.2368    9.2249 H       1  UNL1        0.0000
     19 C           8.5067    0.9280    7.6134 C.3     1  UNL1        0.0000
     20 H           8.5396    1.3804    6.6274 H       1  UNL1        0.0000
     21 H           8.2831   -0.1233    7.4776 H       1  UNL1        0.0000
     22 H           9.5005    1.0047    8.0382 H       1  UNL1        0.0000
     23 C          10.2418    1.1585   11.0665 C.3     1  UNL1        0.0000
     24 H          11.0882    0.4991   11.2324 H       1  UNL1        0.0000
     25 H          10.2774    1.9342   11.8271 H       1  UNL1        0.0000
     26 H          10.3822    1.6361   10.1026 H       1  UNL1        0.0000
     27 C           8.7193   -1.3968   10.0839 C.3     1  UNL1        0.0000
     28 H           9.4147   -1.2753    9.2630 H       1  UNL1        0.0000
     29 H           7.7591   -1.6766    9.6635 H       1  UNL1        0.0000
     30 H           9.0710   -2.2329   10.6788 H       1  UNL1        0.0000
     31 C           8.3904   -0.4560   12.9453 C.3     1  UNL1        0.0000
     32 H           9.2154   -1.1100   13.2149 H       1  UNL1        0.0000
     33 H           7.4725   -1.0277   13.0493 H       1  UNL1        0.0000
     34 H           8.3608    0.3567   13.6616 H       1  UNL1        0.0000
     35 C           3.6861    4.4211    9.6603 C.3     1  UNL1        0.0000
     36 C           2.5023    3.5391    9.2352 C.3     1  UNL1        0.0000
     37 H           2.7872    2.9042    8.3999 H       1  UNL1        0.0000
     38 H           1.6730    4.1694    8.9232 H       1  UNL1        0.0000
     39 H           2.1681    2.9005   10.0500 H       1  UNL1        0.0000
     40 C           3.2342    5.4927   10.6579 C.3     1  UNL1        0.0000
     41 H           2.7030    5.0691   11.5066 H       1  UNL1        0.0000
     42 H           2.5711    6.1955   10.1589 H       1  UNL1        0.0000
     43 H           4.0988    6.0414   11.0285 H       1  UNL1        0.0000
     44 C           4.2442    5.1140    8.4079 C.3     1  UNL1        0.0000
     45 H           5.0255    5.8167    8.6835 H       1  UNL1        0.0000
     46 H           3.4529    5.6558    7.8959 H       1  UNL1        0.0000
     47 H           4.6655    4.3739    7.7342 H       1  UNL1        0.0000
     48 C           5.0520    3.2289   11.3144 C.2     1  UNL1        0.0000
     49 C           2.6346    2.7969   13.0051 C.3     1  UNL1        0.0000
     50 H           2.2939    3.0835   12.0057 H       1  UNL1        0.0000
     51 C           0.8849    2.8558   15.7005 C.3     1  UNL1        0.0000
     52 H           1.7153    2.6207   16.3570 H       1  UNL1        0.0000
     53 H           0.3914    1.9252   15.4430 H       1  UNL1        0.0000
     54 H           0.1800    3.4559   16.2672 H       1  UNL1        0.0000
     55 C          -0.1086    4.1994   13.0950 C.3     1  UNL1        0.0000
     56 H          -0.8605    4.7104   13.6881 H       1  UNL1        0.0000
     57 H          -0.5640    3.2980   12.6989 H       1  UNL1        0.0000
     58 H           0.1303    4.8420   12.2525 H       1  UNL1        0.0000
     59 C           2.2107    5.4771   14.6677 C.3     1  UNL1        0.0000
     60 H           1.4393    6.2272   14.8148 H       1  UNL1        0.0000
     61 H           2.8967    5.8588   13.9156 H       1  UNL1        0.0000
     62 H           2.7628    5.4002   15.5992 H       1  UNL1        0.0000
     63 C           3.6853    0.1298   11.7111 C.3     1  UNL1        0.0000
     64 H           3.3832   -0.8706   11.4148 H       1  UNL1        0.0000
     65 H           4.6797    0.0576   12.1410 H       1  UNL1        0.0000
     66 H           3.7559    0.7326   10.8096 H       1  UNL1        0.0000
     67 C           2.6102   -0.0509   14.6254 C.3     1  UNL1        0.0000
     68 H           1.7524   -0.7006   14.7690 H       1  UNL1        0.0000
     69 H           2.6651    0.6133   15.4787 H       1  UNL1        0.0000
     70 H           3.4984   -0.6737   14.6444 H       1  UNL1        0.0000
     71 C           0.6936    0.5665   12.2955 C.3     1  UNL1        0.0000
     72 H           0.5113    1.0769   11.3549 H       1  UNL1        0.0000
     73 H          -0.0611    0.8971   13.0013 H       1  UNL1        0.0000
     74 H           0.5343   -0.4933   12.1242 H       1  UNL1        0.0000
     75 C           5.4051    2.2439   13.7171 C.2     1  UNL1        0.0000
     76 C           5.2050    1.8164   15.0946 C.ar    1  UNL1        0.0000
     77 C           5.7498    0.6224   15.5677 C.ar    1  UNL1        0.0000
     78 H           6.2880   -0.0122   14.8821 H       1  UNL1        0.0000
     79 C           5.5967    0.2656   16.8924 C.ar    1  UNL1        0.0000
     80 H           6.0180   -0.6616   17.2520 H       1  UNL1        0.0000
     81 C           4.9103    1.0966   17.7648 C.ar    1  UNL1        0.0000
     82 H           4.7974    0.8179   18.8020 H       1  UNL1        0.0000
     83 C           4.3793    2.2917   17.3064 C.ar    1  UNL1        0.0000
     84 H           3.8603    2.9496   17.9886 H       1  UNL1        0.0000
     85 C           4.5228    2.6477   15.9793 C.ar    1  UNL1        0.0000
     86 H           4.1346    3.5898   15.6180 H       1  UNL1        0.0000
@<TRIPOS>BOND
     1    20    19    1
     2    14    11    1
     3    21    19    1
     4    16    15    1
     5    19    22    1
     6    19     3    1
     7    47    44    1
     8    13    11    1
     9    46    44    1
    10    11    12    1
    11    11     3    1
    12    37    36    1
    13    44    45    1
    14    44    35    1
    15    15    17    1
    16    15     3    1
    17    15    18    1
    18     3     9    1
    19    38    36    1
    20    36    35    1
    21    36    39    1
    22    28    27    1
    23    35     8    1
    24    35    40    1
    25    29    27    1
    26    27    30    1
    27    27     4    1
    28    26    23    1
    29     8    48    2
    30    42    40    1
    31     9    10    1
    32     9     4    1
    33     9     1    1
    34    40    43    1
    35    40    41    1
    36    66    63    1
    37    23     4    1
    38    23    24    1
    39    23    25    1
    40     4    31    1
    41    48     1    1
    42    48     2    1
    43    72    71    1
    44    64    63    1
    45     1     7    1
    46    63    65    1
    47    63     6    1
    48    50    49    1
    49    74    71    1
    50    58    55    1
    51    71     6    1
    52    71    73    1
    53    57    55    1
    54    31    33    1
    55    31    32    1
    56    31    34    1
    57     6    49    1
    58     6    67    1
    59    49     2    1
    60    49     5    1
    61     2    75    1
    62     7    75    2
    63    55    56    1
    64    55     5    1
    65    75    76    1
    66    61    59    1
    67     5    59    1
    68     5    51    1
    69    67    70    1
    70    67    68    1
    71    67    69    1
    72    59    60    1
    73    59    62    1
    74    78    77    1
    75    76    77   ar
    76    76    85   ar
    77    53    51    1
    78    77    79   ar
    79    86    85    1
    80    51    54    1
    81    51    52    1
    82    85    83   ar
    83    79    80    1
    84    79    81   ar
    85    83    81   ar
    86    83    84    1
    87    81    82    1
