@<TRIPOS>MOLECULE
1
 34 36 0 0 0
SMALL
GASTEIGER

@<TRIPOS>ATOM
      1 P           6.6021    3.5237   14.4417 P.3     1  UNL1       -0.0131
      2 C           7.2401    3.2082   16.1294 C.ar    1  UNL1       -0.0147
      3 C           7.0182    1.9577   16.7048 C.ar    1  UNL1       -0.0535
      4 H           6.4773    1.2022   16.1512 H       1  UNL1        0.0624
      5 C           7.4849    1.6844   17.9753 C.ar    1  UNL1       -0.0611
      6 H           7.3090    0.7130   18.4141 H       1  UNL1        0.0618
      7 C           8.1782    2.6524   18.6862 C.ar    1  UNL1       -0.0617
      8 H           8.5449    2.4345   19.6785 H       1  UNL1        0.0618
      9 C           8.3957    3.8973   18.1234 C.ar    1  UNL1       -0.0611
     10 H           8.9305    4.6567   18.6746 H       1  UNL1        0.0618
     11 C           7.9273    4.1741   16.8504 C.ar    1  UNL1       -0.0535
     12 H           8.0849    5.1530   16.4197 H       1  UNL1        0.0624
     13 C           4.8188    3.2808   14.7258 C.ar    1  UNL1       -0.0147
     14 C           4.2440    3.5661   15.9606 C.ar    1  UNL1       -0.0535
     15 H           4.8704    3.8466   16.7967 H       1  UNL1        0.0624
     16 C           2.8700    3.5065   16.1146 C.ar    1  UNL1       -0.0611
     17 H           2.4305    3.7287   17.0768 H       1  UNL1        0.0618
     18 C           2.0616    3.1710   15.0414 C.ar    1  UNL1       -0.0617
     19 H           0.9887    3.1278   15.1653 H       1  UNL1        0.0618
     20 C           2.6287    2.8991   13.8062 C.ar    1  UNL1       -0.0611
     21 H           2.0002    2.6513   12.9632 H       1  UNL1        0.0618
     22 C           3.9997    2.9637   13.6435 C.ar    1  UNL1       -0.0535
     23 H           4.4463    2.7884   12.6736 H       1  UNL1        0.0624
     24 C           7.1621    1.9517   13.7046 C.ar    1  UNL1       -0.0147
     25 C           6.3780    0.8303   13.4714 C.ar    1  UNL1       -0.0535
     26 H           5.3158    0.8492   13.6686 H       1  UNL1        0.0624
     27 C           6.9627   -0.3271   12.9862 C.ar    1  UNL1       -0.0611
     28 H           6.3476   -1.1953   12.7993 H       1  UNL1        0.0618
     29 C           8.3249   -0.3798   12.7489 C.ar    1  UNL1       -0.0617
     30 H           8.7729   -1.2889   12.3758 H       1  UNL1        0.0618
     31 C           9.1135    0.7337   12.9925 C.ar    1  UNL1       -0.0611
     32 H          10.1776    0.6964   12.8118 H       1  UNL1        0.0618
     33 C           8.5318    1.8925   13.4644 C.ar    1  UNL1       -0.0535
     34 H           9.1293    2.7748   13.6616 H       1  UNL1        0.0624
@<TRIPOS>BOND
     1    30    29    1
     2    23    22    1
     3    29    27   ar
     4    29    31   ar
     5    28    27    1
     6    32    31    1
     7    21    20    1
     8    27    25   ar
     9    31    33   ar
    10    33    34    1
    11    33    24   ar
    12    25    26    1
    13    25    24   ar
    14    22    20   ar
    15    22    13   ar
    16    24     1    1
    17    20    18   ar
    18     1    13    1
    19     1     2    1
    20    13    14   ar
    21    18    19    1
    22    18    16   ar
    23    14    16   ar
    24    14    15    1
    25    16    17    1
    26     2     3   ar
    27     2    11   ar
    28     4     3    1
    29    12    11    1
    30     3     5   ar
    31    11     9   ar
    32     5     6    1
    33     5     7   ar
    34     9    10    1
    35     9     7   ar
    36     7     8    1
