@<TRIPOS>MOLECULE
1
 34 36 0 0 0
SMALL
GASTEIGER

@<TRIPOS>ATOM
      1 P          -2.5673    4.0934    3.7294 P.3     1  UNL1       -0.0131
      2 C          -4.1595    3.8304    4.5683 C.ar    1  UNL1       -0.0147
      3 C          -5.2388    3.2766    3.8861 C.ar    1  UNL1       -0.0535
      4 H          -5.1706    3.1193    2.8177 H       1  UNL1        0.0624
      5 C          -6.3876    2.9276    4.5734 C.ar    1  UNL1       -0.0611
      6 H          -7.2257    2.5048    4.0386 H       1  UNL1        0.0618
      7 C          -6.4611    3.1089    5.9446 C.ar    1  UNL1       -0.0617
      8 H          -7.3576    2.8320    6.4794 H       1  UNL1        0.0618
      9 C          -5.3796    3.6363    6.6331 C.ar    1  UNL1       -0.0611
     10 H          -5.4313    3.7650    7.7046 H       1  UNL1        0.0618
     11 C          -4.2304    3.9882    5.9512 C.ar    1  UNL1       -0.0535
     12 H          -3.3736    4.3851    6.4798 H       1  UNL1        0.0624
     13 C          -2.0116    5.7311    4.3165 C.ar    1  UNL1       -0.0147
     14 C          -0.6858    6.0538    4.0432 C.ar    1  UNL1       -0.0535
     15 H          -0.0560    5.3088    3.5723 H       1  UNL1        0.0624
     16 C          -0.1857    7.2964    4.3789 C.ar    1  UNL1       -0.0611
     17 H           0.8432    7.5407    4.1630 H       1  UNL1        0.0618
     18 C          -1.0040    8.2232    5.0038 C.ar    1  UNL1       -0.0617
     19 H          -0.6126    9.1910    5.2797 H       1  UNL1        0.0618
     20 C          -2.3243    7.9085    5.2748 C.ar    1  UNL1       -0.0611
     21 H          -2.9637    8.6323    5.7595 H       1  UNL1        0.0618
     22 C          -2.8348    6.6710    4.9244 C.ar    1  UNL1       -0.0535
     23 H          -3.8697    6.4397    5.1350 H       1  UNL1        0.0624
     24 C          -3.0907    4.6062    2.0537 C.ar    1  UNL1       -0.0147
     25 C          -4.1082    5.5447    1.8962 C.ar    1  UNL1       -0.0535
     26 H          -4.6097    5.9440    2.7670 H       1  UNL1        0.0624
     27 C          -4.4782    5.9574    0.6311 C.ar    1  UNL1       -0.0611
     28 H          -5.2725    6.6802    0.5122 H       1  UNL1        0.0618
     29 C          -3.8318    5.4473   -0.4847 C.ar    1  UNL1       -0.0617
     30 H          -4.1252    5.7715   -1.4724 H       1  UNL1        0.0618
     31 C          -2.8112    4.5251   -0.3318 C.ar    1  UNL1       -0.0611
     32 H          -2.3040    4.1290   -1.1991 H       1  UNL1        0.0618
     33 C          -2.4392    4.1069    0.9341 C.ar    1  UNL1       -0.0535
     34 H          -1.6471    3.3806    1.0598 H       1  UNL1        0.0624
@<TRIPOS>BOND
     1    30    29    1
     2    32    31    1
     3    29    31   ar
     4    29    27   ar
     5    31    33   ar
     6    28    27    1
     7    27    25   ar
     8    33    34    1
     9    33    24   ar
    10    25    24   ar
    11    25    26    1
    12    24     1    1
    13     4     3    1
    14    15    14    1
    15     1    13    1
    16     1     2    1
    17     3     2   ar
    18     3     5   ar
    19     6     5    1
    20    14    13   ar
    21    14    16   ar
    22    17    16    1
    23    13    22   ar
    24    16    18   ar
    25     2    11   ar
    26     5     7   ar
    27    22    23    1
    28    22    20   ar
    29    18    20   ar
    30    18    19    1
    31    20    21    1
    32     7     8    1
    33     7     9   ar
    34    11    12    1
    35    11     9   ar
    36     9    10    1
