@<TRIPOS>MOLECULE
1
 34 36 0 0 0
SMALL
GASTEIGER

@<TRIPOS>ATOM
      1 P           7.5268    7.8161   12.9786 P.3     1  UNL1       -0.0131
      2 C           8.5065    8.2694   11.5117 C.ar    1  UNL1       -0.0147
      3 C           8.1372    9.1933   10.5440 C.ar    1  UNL1       -0.0535
      4 H           7.1877    9.7051   10.6069 H       1  UNL1        0.0624
      5 C           8.9902    9.4533    9.4855 C.ar    1  UNL1       -0.0611
      6 H           8.6955   10.1637    8.7266 H       1  UNL1        0.0618
      7 C          10.2117    8.8085    9.3934 C.ar    1  UNL1       -0.0617
      8 H          10.8672    9.0106    8.5591 H       1  UNL1        0.0618
      9 C          10.5941    7.9054   10.3721 C.ar    1  UNL1       -0.0611
     10 H          11.5471    7.4019   10.3080 H       1  UNL1        0.0618
     11 C           9.7440    7.6378   11.4262 C.ar    1  UNL1       -0.0535
     12 H          10.0274    6.9284   12.1949 H       1  UNL1        0.0624
     13 C           6.0211    8.8395   12.8966 C.ar    1  UNL1       -0.0147
     14 C           5.6205    9.5934   13.9968 C.ar    1  UNL1       -0.0535
     15 H           6.2498    9.6457   14.8750 H       1  UNL1        0.0624
     16 C           4.4110   10.2648   13.9748 C.ar    1  UNL1       -0.0611
     17 H           4.1097   10.8497   14.8327 H       1  UNL1        0.0618
     18 C           3.5887   10.1832   12.8636 C.ar    1  UNL1       -0.0617
     19 H           2.6433   10.7071   12.8503 H       1  UNL1        0.0618
     20 C           3.9758    9.4215   11.7725 C.ar    1  UNL1       -0.0611
     21 H           3.3304    9.3440   10.9095 H       1  UNL1        0.0618
     22 C           5.1803    8.7425   11.7879 C.ar    1  UNL1       -0.0535
     23 H           5.4652    8.1172   10.9528 H       1  UNL1        0.0624
     24 C           8.4971    8.7640   14.2086 C.ar    1  UNL1       -0.0147
     25 C           8.9355   10.0435   13.8709 C.ar    1  UNL1       -0.0535
     26 H           8.7002   10.4500   12.8968 H       1  UNL1        0.0624
     27 C           9.6669   10.7896   14.7741 C.ar    1  UNL1       -0.0611
     28 H          10.0041   11.7796   14.5033 H       1  UNL1        0.0618
     29 C           9.9693   10.2708   16.0238 C.ar    1  UNL1       -0.0617
     30 H          10.5450   10.8549   16.7267 H       1  UNL1        0.0618
     31 C           9.5280    9.0059   16.3693 C.ar    1  UNL1       -0.0611
     32 H           9.7539    8.5992   17.3441 H       1  UNL1        0.0618
     33 C           8.7937    8.2571   15.4660 C.ar    1  UNL1       -0.0535
     34 H           8.4344    7.2773   15.7486 H       1  UNL1        0.0624
@<TRIPOS>BOND
     1     8     7    1
     2     6     5    1
     3     7     5   ar
     4     7     9   ar
     5     5     3   ar
     6    10     9    1
     7     9    11   ar
     8     3     4    1
     9     3     2   ar
    10    21    20    1
    11    23    22    1
    12    11     2   ar
    13    11    12    1
    14     2     1    1
    15    20    22   ar
    16    20    18   ar
    17    22    13   ar
    18    19    18    1
    19    18    16   ar
    20    13     1    1
    21    13    14   ar
    22    26    25    1
    23     1    24    1
    24    25    24   ar
    25    25    27   ar
    26    16    14   ar
    27    16    17    1
    28    14    15    1
    29    24    33   ar
    30    28    27    1
    31    27    29   ar
    32    33    34    1
    33    33    31   ar
    34    29    31   ar
    35    29    30    1
    36    31    32    1
