@<TRIPOS>MOLECULE
1
 20 20 0 0 0
SMALL
GASTEIGER

@<TRIPOS>ATOM
      1 P           3.3129    3.9359    3.6896 P.3     1  UNL1       -0.0810
      2 C           1.9424    5.0829    3.3338 C.ar    1  UNL1       -0.0239
      3 C           1.8335    6.1748    4.1907 C.ar    1  UNL1       -0.0542
      4 H           2.5615    6.2725    4.9852 H       1  UNL1        0.0624
      5 C           0.8243    7.1021    4.0181 C.ar    1  UNL1       -0.0612
      6 H           0.7467    7.9474    4.6864 H       1  UNL1        0.0618
      7 C          -0.0862    6.9489    2.9832 C.ar    1  UNL1       -0.0617
      8 H          -0.8768    7.6716    2.8445 H       1  UNL1        0.0618
      9 C           0.0214    5.8685    2.1246 C.ar    1  UNL1       -0.0612
     10 H          -0.6857    5.7488    1.3163 H       1  UNL1        0.0618
     11 C           1.0329    4.9371    2.2953 C.ar    1  UNL1       -0.0542
     12 H           1.1068    4.1020    1.6140 H       1  UNL1        0.0624
     13 C           3.2104    2.6441    2.4101 C.3     1  UNL1       -0.0405
     14 H           2.2293    2.1691    2.4323 H       1  UNL1        0.0280
     15 H           3.9791    1.9052    2.6417 H       1  UNL1        0.0280
     16 H           3.4190    3.0598    1.4254 H       1  UNL1        0.0280
     17 C           2.5866    3.0587    5.1205 C.3     1  UNL1       -0.0405
     18 H           1.5924    2.7071    4.8469 H       1  UNL1        0.0280
     19 H           2.5227    3.7391    5.9683 H       1  UNL1        0.0280
     20 H           3.2270    2.2191    5.3839 H       1  UNL1        0.0280
@<TRIPOS>BOND
     1    10     9    1
     2    16    13    1
     3    12    11    1
     4     9    11   ar
     5     9     7   ar
     6    11     2   ar
     7    13    14    1
     8    13    15    1
     9    13     1    1
    10     8     7    1
    11     7     5   ar
    12     2     1    1
    13     2     3   ar
    14     1    17    1
    15     5     3   ar
    16     5     6    1
    17     3     4    1
    18    18    17    1
    19    17    20    1
    20    17    19    1
