@<TRIPOS>MOLECULE
1
 20 20 0 0 0
SMALL
GASTEIGER

@<TRIPOS>ATOM
      1 P           5.3633    6.6358    2.3714 P.3     1  UNL1       -0.0810
      2 C           6.8740    7.1991    1.5218 C.ar    1  UNL1       -0.0239
      3 C           7.4358    6.4236    0.5119 C.ar    1  UNL1       -0.0542
      4 H           6.9752    5.4890    0.2316 H       1  UNL1        0.0624
      5 C           8.5950    6.8290   -0.1234 C.ar    1  UNL1       -0.0612
      6 H           9.0197    6.2148   -0.9040 H       1  UNL1        0.0618
      7 C           9.2111    8.0139    0.2413 C.ar    1  UNL1       -0.0617
      8 H          10.1172    8.3312   -0.2540 H       1  UNL1        0.0618
      9 C           8.6608    8.7918    1.2468 C.ar    1  UNL1       -0.0612
     10 H           9.1372    9.7180    1.5364 H       1  UNL1        0.0618
     11 C           7.5019    8.3878    1.8857 C.ar    1  UNL1       -0.0542
     12 H           7.0802    9.0056    2.6653 H       1  UNL1        0.0624
     13 C           4.5981    8.2105    2.9235 C.3     1  UNL1       -0.0405
     14 H           4.6204    8.9590    2.1330 H       1  UNL1        0.0280
     15 H           5.1100    8.5747    3.8110 H       1  UNL1        0.0280
     16 H           3.5674    7.9856    3.1936 H       1  UNL1        0.0280
     17 C           4.2773    6.2598    0.9459 C.3     1  UNL1       -0.0405
     18 H           4.3332    7.0763    0.2252 H       1  UNL1        0.0280
     19 H           3.2550    6.1522    1.3089 H       1  UNL1        0.0280
     20 H           4.5903    5.3314    0.4739 H       1  UNL1        0.0280
@<TRIPOS>BOND
     1     6     5    1
     2     8     7    1
     3     5     7   ar
     4     5     3   ar
     5    18    17    1
     6     4     3    1
     7     7     9   ar
     8    20    17    1
     9     3     2   ar
    10    17    19    1
    11    17     1    1
    12     9    10    1
    13     9    11   ar
    14     2    11   ar
    15     2     1    1
    16    11    12    1
    17    14    13    1
    18     1    13    1
    19    13    16    1
    20    13    15    1
