@<TRIPOS>MOLECULE
1
 20 20 0 0 0
SMALL
GASTEIGER

@<TRIPOS>ATOM
      1 P           7.8948    5.1876    4.6037 P.3     1  UNL1       -0.0810
      2 C           9.0704    4.4497    3.4403 C.ar    1  UNL1       -0.0239
      3 C           9.0890    3.0604    3.3392 C.ar    1  UNL1       -0.0542
      4 H           8.4392    2.4702    3.9718 H       1  UNL1        0.0624
      5 C           9.9047    2.4416    2.4122 C.ar    1  UNL1       -0.0612
      6 H           9.9094    1.3640    2.3329 H       1  UNL1        0.0618
      7 C          10.7025    3.2040    1.5739 C.ar    1  UNL1       -0.0617
      8 H          11.3355    2.7208    0.8434 H       1  UNL1        0.0618
      9 C          10.6768    4.5853    1.6624 C.ar    1  UNL1       -0.0612
     10 H          11.2888    5.1828    1.0013 H       1  UNL1        0.0618
     11 C           9.8587    5.2109    2.5864 C.ar    1  UNL1       -0.0542
     12 H           9.8314    6.2896    2.6330 H       1  UNL1        0.0624
     13 C           8.5282    6.8844    4.8747 C.3     1  UNL1       -0.0405
     14 H           9.5908    6.8500    5.1113 H       1  UNL1        0.0280
     15 H           7.9785    7.3083    5.7124 H       1  UNL1        0.0280
     16 H           8.3588    7.5017    3.9968 H       1  UNL1        0.0280
     17 C           8.3646    4.4296    6.1989 C.3     1  UNL1       -0.0405
     18 H           9.4090    4.6538    6.4153 H       1  UNL1        0.0280
     19 H           8.2091    3.3541    6.1647 H       1  UNL1        0.0280
     20 H           7.7114    4.8375    6.9702 H       1  UNL1        0.0280
@<TRIPOS>BOND
     1     8     7    1
     2    10     9    1
     3     7     9   ar
     4     7     5   ar
     5     9    11   ar
     6     6     5    1
     7     5     3   ar
     8    11    12    1
     9    11     2   ar
    10     3     2   ar
    11     3     4    1
    12     2     1    1
    13    16    13    1
    14     1    13    1
    15     1    17    1
    16    13    14    1
    17    13    15    1
    18    19    17    1
    19    17    18    1
    20    17    20    1
