@<TRIPOS>MOLECULE
1
 50 50 0 0 0
SMALL
GASTEIGER

@<TRIPOS>ATOM
      1 P           3.5310    3.1992   11.7144 P.3     1  UNL1        0.0000
      2 SI          2.2545    4.9966   14.0116 Si      1  UNL1        0.0000
      3 SI          4.3825    6.0991   11.7003 Si      1  UNL1        0.0000
      4 O           3.3796    1.7312   14.0428 O.2     1  UNL1        0.0000
      5 C           2.8166    1.9187   12.8178 C.2     1  UNL1        0.0000
      6 C           1.7656    1.2098   12.3664 C.2     1  UNL1        0.0000
      7 H           1.4119    1.4857   11.3778 H       1  UNL1        0.0000
      8 C           1.0383    0.1289   12.9993 C.ar    1  UNL1        0.0000
      9 C           1.2457   -0.2632   14.3240 C.ar    1  UNL1        0.0000
     10 H           1.9667    0.2647   14.9259 H       1  UNL1        0.0000
     11 C           0.5340   -1.3177   14.8626 C.ar    1  UNL1        0.0000
     12 H           0.7061   -1.6099   15.8886 H       1  UNL1        0.0000
     13 C          -0.3989   -2.0001   14.0989 C.ar    1  UNL1        0.0000
     14 H          -0.9529   -2.8234   14.5251 H       1  UNL1        0.0000
     15 C          -0.6189   -1.6185   12.7849 C.ar    1  UNL1        0.0000
     16 H          -1.3454   -2.1453   12.1835 H       1  UNL1        0.0000
     17 C           0.0887   -0.5651   12.2422 C.ar    1  UNL1        0.0000
     18 H          -0.0838   -0.2730   11.2159 H       1  UNL1        0.0000
     19 C           4.7848    1.9064   14.1176 C.3     1  UNL1        0.0000
     20 H           5.0374    2.9717   14.0094 H       1  UNL1        0.0000
     21 H           5.2700    1.3484   13.3020 H       1  UNL1        0.0000
     22 C           5.2526    1.3830   15.4655 C.3     1  UNL1        0.0000
     23 H           4.7508    1.9185   16.2671 H       1  UNL1        0.0000
     24 H           6.3255    1.5197   15.5625 H       1  UNL1        0.0000
     25 H           5.0184    0.3257   15.5559 H       1  UNL1        0.0000
     26 C           3.3983    4.6729   12.5101 C.3     1  UNL1        0.0000
     27 C           1.3388    6.6282   13.6277 C.3     1  UNL1        0.0000
     28 H           2.0110    7.4518   13.4232 H       1  UNL1        0.0000
     29 H           0.7150    6.9149   14.4683 H       1  UNL1        0.0000
     30 H           0.6895    6.5136   12.7655 H       1  UNL1        0.0000
     31 C           3.3183    5.1576   15.5890 C.3     1  UNL1        0.0000
     32 H           4.1842    5.7916   15.4324 H       1  UNL1        0.0000
     33 H           3.6719    4.1879   15.9236 H       1  UNL1        0.0000
     34 H           2.7362    5.5879   16.3980 H       1  UNL1        0.0000
     35 C           0.8558    3.7399   14.3245 C.3     1  UNL1        0.0000
     36 H           0.3435    3.4743   13.4052 H       1  UNL1        0.0000
     37 H           0.1188    4.1733   14.9952 H       1  UNL1        0.0000
     38 H           1.2110    2.8233   14.7794 H       1  UNL1        0.0000
     39 C           3.3199    6.9115   10.3429 C.3     1  UNL1        0.0000
     40 H           2.4605    7.4237   10.7624 H       1  UNL1        0.0000
     41 H           2.9509    6.1686    9.6416 H       1  UNL1        0.0000
     42 H           3.8959    7.6395    9.7806 H       1  UNL1        0.0000
     43 C           6.0052    5.4115   10.9686 C.3     1  UNL1        0.0000
     44 H           6.4146    4.6226   11.5947 H       1  UNL1        0.0000
     45 H           6.7592    6.1884   10.8880 H       1  UNL1        0.0000
     46 H           5.8562    4.9980    9.9761 H       1  UNL1        0.0000
     47 C           4.9411    7.3769   13.0049 C.3     1  UNL1        0.0000
     48 H           5.6927    6.9586   13.6671 H       1  UNL1        0.0000
     49 H           4.1277    7.7410   13.6199 H       1  UNL1        0.0000
     50 H           5.3873    8.2351   12.5123 H       1  UNL1        0.0000
@<TRIPOS>BOND
     1    41    39    1
     2    42    39    1
     3    46    43    1
     4    39    40    1
     5    39     3    1
     6    45    43    1
     7    43    44    1
     8    43     3    1
     9    18    17    1
    10     7     6    1
    11     3    26    1
    12     3    47    1
    13     1    26    1
    14     1     5    1
    15    16    15    1
    16    17    15   ar
    17    17     8   ar
    18     6     5    2
    19     6     8    1
    20    26     2    1
    21    50    47    1
    22    30    27    1
    23    15    13   ar
    24     5     4    1
    25     8     9   ar
    26    47    49    1
    27    47    48    1
    28    21    19    1
    29    36    35    1
    30    28    27    1
    31    27     2    1
    32    27    29    1
    33    20    19    1
    34     2    35    1
    35     2    31    1
    36     4    19    1
    37    13    14    1
    38    13    11   ar
    39    19    22    1
    40     9    11   ar
    41     9    10    1
    42    35    38    1
    43    35    37    1
    44    11    12    1
    45    32    31    1
    46    22    25    1
    47    22    24    1
    48    22    23    1
    49    31    33    1
    50    31    34    1
