@<TRIPOS>MOLECULE
1
 62 63 0 0 0
SMALL
GASTEIGER

@<TRIPOS>ATOM
      1 P           4.4482    8.6183    4.3332 P.3     1  UNL1        0.0000
      2 SI          5.5441    5.7499    5.0506 Si      1  UNL1        0.0000
      3 SI          7.1236    8.5663    5.8499 Si      1  UNL1        0.0000
      4 N           3.4761    7.5234    3.5236 N.3     1  UNL1        0.0000
      5 N           2.8798    6.7614    1.4433 N.3     1  UNL1        0.0000
      6 O           3.6215   10.5954    2.0576 O.3     1  UNL1        0.0000
      7 O           3.6612    9.8589   -0.0609 O.2     1  UNL1        0.0000
      8 C           3.6011    7.5549    2.2392 C.3     1  UNL1        0.0000
      9 C           4.6538    8.5116    1.6641 C.3     1  UNL1        0.0000
     10 H           5.2040    8.0368    0.8472 H       1  UNL1        0.0000
     11 C           5.5460    8.8741    2.8450 C.3     1  UNL1        0.0000
     12 H           5.9416    9.8851    2.7682 H       1  UNL1        0.0000
     13 H           6.3737    8.1673    2.9226 H       1  UNL1        0.0000
     14 C           5.4848    7.6262    5.4714 C.3     1  UNL1        0.0000
     15 H           4.9155    7.6703    6.4075 H       1  UNL1        0.0000
     16 C           3.8407    4.9783    5.4318 C.3     1  UNL1        0.0000
     17 H           3.0377    5.6574    5.1684 H       1  UNL1        0.0000
     18 H           3.7457    4.7542    6.4905 H       1  UNL1        0.0000
     19 H           3.6893    4.0513    4.8867 H       1  UNL1        0.0000
     20 C           6.7953    4.8959    6.2128 C.3     1  UNL1        0.0000
     21 H           6.7852    3.8250    6.0404 H       1  UNL1        0.0000
     22 H           6.5402    5.0578    7.2543 H       1  UNL1        0.0000
     23 H           7.8121    5.2408    6.0651 H       1  UNL1        0.0000
     24 C           6.0817    5.3446    3.2610 C.3     1  UNL1        0.0000
     25 H           6.1970    4.2703    3.1507 H       1  UNL1        0.0000
     26 H           7.0333    5.7975    3.0006 H       1  UNL1        0.0000
     27 H           5.3442    5.6697    2.5357 H       1  UNL1        0.0000
     28 C           7.5886    8.2120    7.6645 C.3     1  UNL1        0.0000
     29 H           7.7819    7.1594    7.8365 H       1  UNL1        0.0000
     30 H           6.8000    8.5189    8.3442 H       1  UNL1        0.0000
     31 H           8.4853    8.7586    7.9378 H       1  UNL1        0.0000
     32 C           6.9708   10.4588    5.6389 C.3     1  UNL1        0.0000
     33 H           7.8783   10.8839    5.2192 H       1  UNL1        0.0000
     34 H           6.7973   10.9497    6.5916 H       1  UNL1        0.0000
     35 H           6.1451   10.7241    4.9847 H       1  UNL1        0.0000
     36 C           8.5592    7.9913    4.7215 C.3     1  UNL1        0.0000
     37 H           9.5049    8.2690    5.1759 H       1  UNL1        0.0000
     38 H           8.5298    8.4538    3.7398 H       1  UNL1        0.0000
     39 H           8.5699    6.9160    4.5835 H       1  UNL1        0.0000
     40 C           1.8634    5.9009    2.0213 C.3     1  UNL1        0.0000
     41 H           2.0397    5.8428    3.0939 H       1  UNL1        0.0000
     42 H           1.9751    4.9042    1.5805 H       1  UNL1        0.0000
     43 C           0.4706    6.4512    1.7225 C.3     1  UNL1        0.0000
     44 H           0.3678    7.4284    2.1966 H       1  UNL1        0.0000
     45 H          -0.2818    5.7853    2.1464 H       1  UNL1        0.0000
     46 C           0.2814    6.5874    0.2143 C.3     1  UNL1        0.0000
     47 H           0.3083    5.5973   -0.2483 H       1  UNL1        0.0000
     48 H          -0.6896    7.0339   -0.0043 H       1  UNL1        0.0000
     49 C           1.3962    7.4512   -0.3675 C.3     1  UNL1        0.0000
     50 H           1.3162    7.5066   -1.4535 H       1  UNL1        0.0000
     51 H           1.3217    8.4655    0.0276 H       1  UNL1        0.0000
     52 C           2.7645    6.8756    0.0058 C.3     1  UNL1        0.0000
     53 H           2.8676    5.8696   -0.4189 H       1  UNL1        0.0000
     54 H           3.5490    7.5105   -0.3999 H       1  UNL1        0.0000
     55 C           3.9333    9.7222    1.1058 C.2     1  UNL1        0.0000
     56 C           2.9559   11.7913    1.6251 C.3     1  UNL1        0.0000
     57 H           2.4063   12.1492    2.4979 H       1  UNL1        0.0000
     58 H           2.2568   11.5318    0.8236 H       1  UNL1        0.0000
     59 C           3.9572   12.8283    1.1422 C.3     1  UNL1        0.0000
     60 H           4.6649   13.0636    1.9331 H       1  UNL1        0.0000
     61 H           3.4295   13.7348    0.8608 H       1  UNL1        0.0000
     62 H           4.4983   12.4532    0.2765 H       1  UNL1        0.0000
@<TRIPOS>BOND
     1    50    49    1
     2    53    52    1
     3    54    52    1
     4    49    52    1
     5    49    51    1
     6    49    46    1
     7    47    46    1
     8     7    55    2
     9    48    46    1
    10    52     5    1
    11    46    43    1
    12    62    59    1
    13    58    56    1
    14    10     9    1
    15    61    59    1
    16    55     9    1
    17    55     6    1
    18    59    56    1
    19    59    60    1
    20     5    40    1
    21     5     8    1
    22    42    40    1
    23    56     6    1
    24    56    57    1
    25     9     8    1
    26     9    11    1
    27    43    40    1
    28    43    45    1
    29    43    44    1
    30    40    41    1
    31     8     4    1
    32    27    24    1
    33    12    11    1
    34    11    13    1
    35    11     1    1
    36    26    24    1
    37    25    24    1
    38    24     2    1
    39     4     1    1
    40    38    36    1
    41     1    14    1
    42    39    36    1
    43    36    37    1
    44    36     3    1
    45    19    16    1
    46    35    32    1
    47     2    16    1
    48     2    14    1
    49     2    20    1
    50    17    16    1
    51    33    32    1
    52    16    18    1
    53    14     3    1
    54    14    15    1
    55    32     3    1
    56    32    34    1
    57     3    28    1
    58    21    20    1
    59    23    20    1
    60    20    22    1
    61    28    29    1
    62    28    31    1
    63    28    30    1
