@<TRIPOS>MOLECULE
1
 34 36 0 0 0
SMALL
GASTEIGER

@<TRIPOS>ATOM
      1 P          -0.5623    6.3721   16.2903 P.3     1  UNL1       -0.0131
      2 C           1.1789    6.5426   16.8262 C.ar    1  UNL1       -0.0147
      3 C           1.6291    6.5784   18.1406 C.ar    1  UNL1       -0.0535
      4 H           0.9309    6.5471   18.9632 H       1  UNL1        0.0624
      5 C           2.9842    6.6909   18.4060 C.ar    1  UNL1       -0.0611
      6 H           3.3242    6.7198   19.4305 H       1  UNL1        0.0618
      7 C           3.8986    6.7789   17.3707 C.ar    1  UNL1       -0.0617
      8 H           4.9526    6.8659   17.5860 H       1  UNL1        0.0618
      9 C           3.4534    6.7764   16.0581 C.ar    1  UNL1       -0.0611
     10 H           4.1602    6.8711   15.2471 H       1  UNL1        0.0618
     11 C           2.1041    6.6578   15.7887 C.ar    1  UNL1       -0.0535
     12 H           1.7416    6.6734   14.7710 H       1  UNL1        0.0624
     13 C          -1.5386    6.4260   17.8350 C.ar    1  UNL1       -0.0147
     14 C          -2.6309    7.2813   17.9526 C.ar    1  UNL1       -0.0535
     15 H          -2.8523    7.9800   17.1591 H       1  UNL1        0.0624
     16 C          -3.4320    7.2435   19.0799 C.ar    1  UNL1       -0.0611
     17 H          -4.2732    7.9155   19.1611 H       1  UNL1        0.0618
     18 C          -3.1591    6.3485   20.1011 C.ar    1  UNL1       -0.0617
     19 H          -3.7832    6.3223   20.9811 H       1  UNL1        0.0618
     20 C          -2.0824    5.4846   19.9877 C.ar    1  UNL1       -0.0611
     21 H          -1.8655    4.7815   20.7786 H       1  UNL1        0.0618
     22 C          -1.2835    5.5152   18.8593 C.ar    1  UNL1       -0.0535
     23 H          -0.4521    4.8277   18.7791 H       1  UNL1        0.0624
     24 C          -0.8512    8.0488   15.6214 C.ar    1  UNL1       -0.0147
     25 C          -1.8907    8.2397   14.7158 C.ar    1  UNL1       -0.0535
     26 H          -2.4899    7.3887   14.4204 H       1  UNL1        0.0624
     27 C          -2.1526    9.5004   14.2100 C.ar    1  UNL1       -0.0611
     28 H          -2.9617    9.6398   13.5083 H       1  UNL1        0.0618
     29 C          -1.3808   10.5812   14.6054 C.ar    1  UNL1       -0.0617
     30 H          -1.5817   11.5645   14.2083 H       1  UNL1        0.0618
     31 C          -0.3535   10.3981   15.5163 C.ar    1  UNL1       -0.0611
     32 H           0.2437   11.2397   15.8333 H       1  UNL1        0.0618
     33 C          -0.0884    9.1396   16.0271 C.ar    1  UNL1       -0.0535
     34 H           0.7121    9.0092   16.7410 H       1  UNL1        0.0624
@<TRIPOS>BOND
     1    28    27    1
     2    30    29    1
     3    27    29   ar
     4    27    25   ar
     5    26    25    1
     6    29    31   ar
     7    25    24   ar
     8    12    11    1
     9    10     9    1
    10    31    32    1
    11    31    33   ar
    12    24    33   ar
    13    24     1    1
    14    11     9   ar
    15    11     2   ar
    16    33    34    1
    17     9     7   ar
    18     1     2    1
    19     1    13    1
    20     2     3   ar
    21    15    14    1
    22     7     8    1
    23     7     5   ar
    24    13    14   ar
    25    13    22   ar
    26    14    16   ar
    27     3     5   ar
    28     3     4    1
    29     5     6    1
    30    23    22    1
    31    22    20   ar
    32    16    17    1
    33    16    18   ar
    34    20    18   ar
    35    20    21    1
    36    18    19    1
