@<TRIPOS>MOLECULE
1
 34 36 0 0 0
SMALL
GASTEIGER

@<TRIPOS>ATOM
      1 P          -1.5905    2.5365   13.7359 P.3     1  UNL1       -0.0131
      2 C          -1.1021    1.0296   14.6704 C.ar    1  UNL1       -0.0147
      3 C           0.2475    0.6761   14.6443 C.ar    1  UNL1       -0.0535
      4 H           0.9323    1.2251   14.0105 H       1  UNL1        0.0624
      5 C           0.7152   -0.3837   15.3970 C.ar    1  UNL1       -0.0611
      6 H           1.7622   -0.6466   15.3595 H       1  UNL1        0.0618
      7 C          -0.1574   -1.1070   16.1938 C.ar    1  UNL1       -0.0617
      8 H           0.2056   -1.9351   16.7830 H       1  UNL1        0.0618
      9 C          -1.5001   -0.7716   16.2172 C.ar    1  UNL1       -0.0611
     10 H          -2.1891   -1.3419   16.8223 H       1  UNL1        0.0618
     11 C          -1.9712    0.2904   15.4644 C.ar    1  UNL1       -0.0535
     12 H          -3.0244    0.5260   15.4830 H       1  UNL1        0.0624
     13 C          -0.7163    2.1244   12.1814 C.ar    1  UNL1       -0.0147
     14 C           0.0669    3.0541   11.5124 C.ar    1  UNL1       -0.0535
     15 H           0.1436    4.0540   11.9071 H       1  UNL1        0.0624
     16 C           0.7391    2.7038   10.3532 C.ar    1  UNL1       -0.0611
     17 H           1.3477    3.4343    9.8407 H       1  UNL1        0.0618
     18 C           0.6331    1.4182    9.8521 C.ar    1  UNL1       -0.0617
     19 H           1.1560    1.1436    8.9489 H       1  UNL1        0.0618
     20 C          -0.1457    0.4815   10.5151 C.ar    1  UNL1       -0.0611
     21 H          -0.2300   -0.5227   10.1277 H       1  UNL1        0.0618
     22 C          -0.8140    0.8282   11.6732 C.ar    1  UNL1       -0.0535
     23 H          -1.4165    0.0935   12.1905 H       1  UNL1        0.0624
     24 C          -3.3275    2.1832   13.2949 C.ar    1  UNL1       -0.0147
     25 C          -3.7423    1.9070   11.9975 C.ar    1  UNL1       -0.0535
     26 H          -3.0347    1.9256   11.1826 H       1  UNL1        0.0624
     27 C          -5.0697    1.6084   11.7402 C.ar    1  UNL1       -0.0611
     28 H          -5.3806    1.3888   10.7298 H       1  UNL1        0.0618
     29 C          -5.9948    1.5857   12.7697 C.ar    1  UNL1       -0.0617
     30 H          -7.0249    1.3339   12.5669 H       1  UNL1        0.0618
     31 C          -5.5973    1.9062   14.0586 C.ar    1  UNL1       -0.0611
     32 H          -6.3215    1.9183   14.8594 H       1  UNL1        0.0618
     33 C          -4.2766    2.2198   14.3147 C.ar    1  UNL1       -0.0535
     34 H          -3.9714    2.5133   15.3088 H       1  UNL1        0.0624
@<TRIPOS>BOND
     1    19    18    1
     2    17    16    1
     3    18    16   ar
     4    18    20   ar
     5    21    20    1
     6    16    14   ar
     7    20    22   ar
     8    28    27    1
     9    26    25    1
    10    14    15    1
    11    14    13   ar
    12    22    13   ar
    13    22    23    1
    14    27    25   ar
    15    27    29   ar
    16    25    24   ar
    17    13     1    1
    18    30    29    1
    19    29    31   ar
    20    24     1    1
    21    24    33   ar
    22     1     2    1
    23     4     3    1
    24    31    33   ar
    25    31    32    1
    26    33    34    1
    27     3     2   ar
    28     3     5   ar
    29     2    11   ar
    30     6     5    1
    31     5     7   ar
    32    11    12    1
    33    11     9   ar
    34     7     9   ar
    35     7     8    1
    36     9    10    1
