@<TRIPOS>MOLECULE
1
 34 36 0 0 0
SMALL
GASTEIGER

@<TRIPOS>ATOM
      1 P           5.4176    4.7432    3.2640 P.3     1  UNL1       -0.0131
      2 C           3.7868    5.2576    2.6258 C.ar    1  UNL1       -0.0147
      3 C           2.7005    4.4241    2.8846 C.ar    1  UNL1       -0.0535
      4 H           2.8556    3.5215    3.4609 H       1  UNL1        0.0624
      5 C           1.4396    4.7506    2.4234 C.ar    1  UNL1       -0.0611
      6 H           0.6041    4.0967    2.6244 H       1  UNL1        0.0618
      7 C           1.2483    5.9234    1.7095 C.ar    1  UNL1       -0.0617
      8 H           0.2637    6.1840    1.3535 H       1  UNL1        0.0618
      9 C           2.3208    6.7632    1.4617 C.ar    1  UNL1       -0.0611
     10 H           2.1726    7.6810    0.9134 H       1  UNL1        0.0618
     11 C           3.5872    6.4359    1.9156 C.ar    1  UNL1       -0.0535
     12 H           4.4144    7.1020    1.7203 H       1  UNL1        0.0624
     13 C           6.4832    6.1741    2.8832 C.ar    1  UNL1       -0.0147
     14 C           6.8899    6.4562    1.5803 C.ar    1  UNL1       -0.0535
     15 H           6.5902    5.8082    0.7684 H       1  UNL1        0.0624
     16 C           7.6741    7.5672    1.3296 C.ar    1  UNL1       -0.0611
     17 H           7.9862    7.7842    0.3193 H       1  UNL1        0.0618
     18 C           8.0550    8.4037    2.3679 C.ar    1  UNL1       -0.0617
     19 H           8.6663    9.2694    2.1645 H       1  UNL1        0.0618
     20 C           7.6466    8.1306    3.6628 C.ar    1  UNL1       -0.0611
     21 H           7.9340    8.7860    4.4710 H       1  UNL1        0.0618
     22 C           6.8644    7.0186    3.9177 C.ar    1  UNL1       -0.0535
     23 H           6.5221    6.7990    4.9181 H       1  UNL1        0.0624
     24 C           5.9962    3.5451    2.0076 C.ar    1  UNL1       -0.0147
     25 C           7.3714    3.3509    1.8791 C.ar    1  UNL1       -0.0535
     26 H           8.0536    3.9906    2.4240 H       1  UNL1        0.0624
     27 C           7.8623    2.3700    1.0386 C.ar    1  UNL1       -0.0611
     28 H           8.9286    2.2352    0.9363 H       1  UNL1        0.0618
     29 C           6.9877    1.5633    0.3282 C.ar    1  UNL1       -0.0617
     30 H           7.3707    0.7966   -0.3274 H       1  UNL1        0.0618
     31 C           5.6213    1.7508    0.4519 C.ar    1  UNL1       -0.0611
     32 H           4.9383    1.1315   -0.1095 H       1  UNL1        0.0618
     33 C           5.1245    2.7329    1.2911 C.ar    1  UNL1       -0.0535
     34 H           4.0576    2.8800    1.3748 H       1  UNL1        0.0624
@<TRIPOS>BOND
     1    30    29    1
     2    32    31    1
     3    17    16    1
     4    29    31   ar
     5    29    27   ar
     6    31    33   ar
     7    15    14    1
     8    10     9    1
     9    28    27    1
    10    27    25   ar
    11    33    34    1
    12    33    24   ar
    13    16    14   ar
    14    16    18   ar
    15     8     7    1
    16     9     7   ar
    17     9    11   ar
    18    14    13   ar
    19     7     5   ar
    20    12    11    1
    21    25    24   ar
    22    25    26    1
    23    11     2   ar
    24    24     1    1
    25    19    18    1
    26    18    20   ar
    27     5     6    1
    28     5     3   ar
    29     2     3   ar
    30     2     1    1
    31    13     1    1
    32    13    22   ar
    33     3     4    1
    34    20    22   ar
    35    20    21    1
    36    22    23    1
