@<TRIPOS>MOLECULE
1
 58 59 0 0 0
SMALL
GASTEIGER

@<TRIPOS>ATOM
      1 P           1.2127    3.3959    7.8732 P.3     1  UNL1        0.0000
      2 N          -0.0344    4.3965    8.2974 N.2     1  UNL1        0.0000
      3 SI          2.8153    2.8762   10.4654 Si      1  UNL1        0.0000
      4 SI         -0.3629    1.9721    9.9970 Si      1  UNL1        0.0000
      5 O           4.6215    5.5271    7.8034 O.2     1  UNL1        0.0000
      6 O           4.0580    3.7310    6.5723 O.3     1  UNL1        0.0000
      7 O           2.3755    8.1864    8.3235 O.2     1  UNL1        0.0000
      8 O           2.7703    7.2290    6.3306 O.3     1  UNL1        0.0000
      9 C           1.4130    2.2777    9.2838 C.3     1  UNL1        0.0000
     10 H           1.7498    1.3363    8.8393 H       1  UNL1        0.0000
     11 C           2.7664    1.8238   12.0556 C.3     1  UNL1        0.0000
     12 H           3.6065    2.0850   12.6908 H       1  UNL1        0.0000
     13 H           2.8420    0.7638   11.8379 H       1  UNL1        0.0000
     14 H           1.8608    1.9825   12.6298 H       1  UNL1        0.0000
     15 C           4.4834    2.5137    9.6017 C.3     1  UNL1        0.0000
     16 H           5.0725    1.8002   10.1701 H       1  UNL1        0.0000
     17 H           5.0803    3.4155    9.5033 H       1  UNL1        0.0000
     18 H           4.3412    2.0986    8.6077 H       1  UNL1        0.0000
     19 C           2.6157    4.7156   10.9226 C.3     1  UNL1        0.0000
     20 H           1.6029    5.0660   10.7498 H       1  UNL1        0.0000
     21 H           3.2832    5.3453   10.3419 H       1  UNL1        0.0000
     22 H           2.8466    4.8822   11.9704 H       1  UNL1        0.0000
     23 C          -0.2885    0.2572   10.8331 C.3     1  UNL1        0.0000
     24 H          -0.0087   -0.5202   10.1290 H       1  UNL1        0.0000
     25 H          -1.2651    0.0003   11.2282 H       1  UNL1        0.0000
     26 H           0.4143    0.2255   11.6564 H       1  UNL1        0.0000
     27 C          -0.7949    3.3255   11.2673 C.3     1  UNL1        0.0000
     28 H          -0.9506    4.2819   10.7788 H       1  UNL1        0.0000
     29 H          -0.0198    3.4524   12.0151 H       1  UNL1        0.0000
     30 H          -1.7130    3.0688   11.7858 H       1  UNL1        0.0000
     31 C          -1.7396    1.8835    8.6787 C.3     1  UNL1        0.0000
     32 H          -2.0200    0.8580    8.4571 H       1  UNL1        0.0000
     33 H          -1.4338    2.3564    7.7499 H       1  UNL1        0.0000
     34 H          -2.6301    2.3978    9.0272 H       1  UNL1        0.0000
     35 C           2.3770    4.7824    7.7777 C.2     1  UNL1        0.0000
     36 C           1.6546    5.9384    7.8811 C.2     1  UNL1        0.0000
     37 C           0.2678    5.6646    8.2183 C.2     1  UNL1        0.0000
     38 C           3.7913    4.7499    7.4002 C.2     1  UNL1        0.0000
     39 C           5.4049    3.6218    6.1258 C.3     1  UNL1        0.0000
     40 H           5.5809    4.3255    5.3099 H       1  UNL1        0.0000
     41 H           5.5355    2.6009    5.7758 H       1  UNL1        0.0000
     42 H           6.0923    3.8419    6.9446 H       1  UNL1        0.0000
     43 C           2.2865    7.2510    7.5729 C.2     1  UNL1        0.0000
     44 C           3.5209    8.3655    5.9233 C.3     1  UNL1        0.0000
     45 H           2.9927    9.2834    6.1882 H       1  UNL1        0.0000
     46 H           3.6376    8.2819    4.8459 H       1  UNL1        0.0000
     47 H           4.4939    8.3551    6.4185 H       1  UNL1        0.0000
     48 C          -0.7885    6.6485    8.4263 C.ar    1  UNL1        0.0000
     49 C          -2.0948    6.2958    8.0752 C.ar    1  UNL1        0.0000
     50 H          -2.2706    5.3258    7.6365 H       1  UNL1        0.0000
     51 C          -3.1348    7.1812    8.2718 C.ar    1  UNL1        0.0000
     52 H          -4.1384    6.9035    7.9862 H       1  UNL1        0.0000
     53 C          -2.8907    8.4248    8.8341 C.ar    1  UNL1        0.0000
     54 H          -3.7041    9.1188    8.9866 H       1  UNL1        0.0000
     55 C          -1.6023    8.7732    9.2044 C.ar    1  UNL1        0.0000
     56 H          -1.4112    9.7361    9.6541 H       1  UNL1        0.0000
     57 C          -0.5524    7.8951    9.0054 C.ar    1  UNL1        0.0000
     58 H           0.4434    8.1703    9.3124 H       1  UNL1        0.0000
@<TRIPOS>BOND
     1    46    44    1
     2    40    39    1
     3    41    39    1
     4    44    45    1
     5    44     8    1
     6    44    47    1
     7    39     6    1
     8    39    42    1
     9     8    43    1
    10     6    38    1
    11    38    35    1
    12    38     5    2
    13    43    36    1
    14    43     7    2
    15    50    49    1
    16    33    31    1
    17    35     1    1
    18    35    36    2
    19     1     2    1
    20     1     9    1
    21    36    37    1
    22    52    51    1
    23    49    51   ar
    24    49    48   ar
    25    37     2    2
    26    37    48    1
    27    51    53   ar
    28    48    57   ar
    29    32    31    1
    30    18    15    1
    31    31    34    1
    32    31     4    1
    33    53    54    1
    34    53    55   ar
    35    10     9    1
    36    57    55   ar
    37    57    58    1
    38    55    56    1
    39     9     4    1
    40     9     3    1
    41    17    15    1
    42    15    16    1
    43    15     3    1
    44     4    23    1
    45     4    27    1
    46    24    23    1
    47    21    19    1
    48     3    19    1
    49     3    11    1
    50    20    19    1
    51    28    27    1
    52    23    25    1
    53    23    26    1
    54    19    22    1
    55    27    30    1
    56    27    29    1
    57    13    11    1
    58    11    14    1
    59    11    12    1
