@<TRIPOS>MOLECULE
3
 39 39 0 0 0
SMALL
GASTEIGER

@<TRIPOS>ATOM
      1 SI          2.6228    8.2461    1.4407 Si      1  UNL1        0.0000
      2 SI         -0.0525    8.4368   -0.2513 Si      1  UNL1        0.0000
      3 P           0.2515    9.6665    2.3964 P.3     1  UNL1        0.0000
      4 N           0.9586    8.7684    1.1585 N.3     1  UNL1        0.0000
      5 C           2.7680    6.3969    0.9990 C.3     1  UNL1        0.0000
      6 C           3.8627    9.2571    0.3997 C.3     1  UNL1        0.0000
      7 C           3.0129    8.5316    3.2783 C.3     1  UNL1        0.0000
      8 C          -0.7856    6.6766   -0.1523 C.3     1  UNL1        0.0000
      9 C           0.9924    8.5786   -1.8378 C.3     1  UNL1        0.0000
     10 C          -1.4656    9.7100   -0.2576 C.3     1  UNL1        0.0000
     11 C           0.2927   12.3825    2.8649 C.ar    1  UNL1        0.0000
     12 C           0.5774   13.7022    2.5766 C.ar    1  UNL1        0.0000
     13 C           1.2264   14.0356    1.3962 C.ar    1  UNL1        0.0000
     14 C           1.5874   13.0392    0.5037 C.ar    1  UNL1        0.0000
     15 C           1.3046   11.7164    0.7871 C.ar    1  UNL1        0.0000
     16 C           0.6558   11.3718    1.9723 C.ar    1  UNL1        0.0000
     17 H           3.7890    6.0628    1.1489 H       1  UNL1        0.0000
     18 H           2.5120    6.2118   -0.0385 H       1  UNL1        0.0000
     19 H           2.1288    5.7734    1.6157 H       1  UNL1        0.0000
     20 H           4.8564    8.8334    0.5035 H       1  UNL1        0.0000
     21 H           3.9127   10.2912    0.7268 H       1  UNL1        0.0000
     22 H           3.6162    9.2525   -0.6562 H       1  UNL1        0.0000
     23 H           4.0233    8.2226    3.5272 H       1  UNL1        0.0000
     24 H           2.3256    7.9855    3.9210 H       1  UNL1        0.0000
     25 H           2.9157    9.5866    3.5278 H       1  UNL1        0.0000
     26 H          -1.3323    6.4493   -1.0622 H       1  UNL1        0.0000
     27 H          -1.4798    6.5792    0.6763 H       1  UNL1        0.0000
     28 H          -0.0182    5.9185   -0.0354 H       1  UNL1        0.0000
     29 H           0.3815    8.3197   -2.6956 H       1  UNL1        0.0000
     30 H           1.8392    7.9016   -1.8230 H       1  UNL1        0.0000
     31 H           1.3695    9.5826   -2.0006 H       1  UNL1        0.0000
     32 H          -2.2114    9.4760   -1.0106 H       1  UNL1        0.0000
     33 H          -1.1024   10.7150   -0.4517 H       1  UNL1        0.0000
     34 H          -1.9625    9.7279    0.7123 H       1  UNL1        0.0000
     35 H          -0.2140   12.1192    3.7840 H       1  UNL1        0.0000
     36 H           0.2929   14.4770    3.2730 H       1  UNL1        0.0000
     37 H           1.4480   15.0688    1.1736 H       1  UNL1        0.0000
     38 H           2.0905   13.2960   -0.4178 H       1  UNL1        0.0000
     39 H           1.5798   10.9380    0.0927 H       1  UNL1        0.0000
@<TRIPOS>BOND
     1    29     9    1
     2    31     9    1
     3     9    30    1
     4     9     2    1
     5    26     8    1
     6    32    10    1
     7    22     6    1
     8    33    10    1
     9    38    14    1
    10    10     2    1
    11    10    34    1
    12     2     8    1
    13     2     4    1
    14     8    28    1
    15     8    27    1
    16    18     5    1
    17    39    15    1
    18     6    20    1
    19     6    21    1
    20     6     1    1
    21    14    15   ar
    22    14    13   ar
    23    15    16   ar
    24     5    17    1
    25     5     1    1
    26     5    19    1
    27     4     1    1
    28     4     3    1
    29    37    13    1
    30    13    12   ar
    31     1     7    1
    32    16     3    1
    33    16    11   ar
    34    12    11   ar
    35    12    36    1
    36    11    35    1
    37     7    23    1
    38     7    25    1
    39     7    24    1
