@<TRIPOS>MOLECULE
1
 39 39 0 0 0
SMALL
GASTEIGER

@<TRIPOS>ATOM
      1 P           3.6558    3.7269    2.6243 P.3     1  UNL1        0.0000
      2 SI          6.4594    3.1309    3.4290 Si      1  UNL1        0.0000
      3 C           7.0453    1.3386    3.6819 C.3     1  UNL1        0.0000
      4 C           6.6320    3.6126    1.5967 C.3     1  UNL1        0.0000
      5 C           7.4709    4.3217    4.5322 C.3     1  UNL1        0.0000
      6 SI          3.9553    3.0682    5.3876 Si      1  UNL1        0.0000
      7 C           2.3025    2.1871    5.0652 C.3     1  UNL1        0.0000
      8 C           5.0752    1.9990    6.4871 C.3     1  UNL1        0.0000
      9 C           3.6366    4.7731    6.1890 C.3     1  UNL1        0.0000
     10 N           4.7465    3.3298    3.8190 N.3     1  UNL1        0.0000
     11 C           2.3817    6.0700    2.0742 C.ar    1  UNL1        0.0000
     12 C           2.2065    7.4389    2.0435 C.ar    1  UNL1        0.0000
     13 C           3.1626    8.2716    2.6070 C.ar    1  UNL1        0.0000
     14 C           4.2874    7.7288    3.2097 C.ar    1  UNL1        0.0000
     15 C           4.4651    6.3589    3.2458 C.ar    1  UNL1        0.0000
     16 C           3.5169    5.5182    2.6677 C.ar    1  UNL1        0.0000
     17 H           6.2901    0.6226    3.3756 H       1  UNL1        0.0000
     18 H           7.2940    1.1384    4.7181 H       1  UNL1        0.0000
     19 H           7.9370    1.1505    3.0917 H       1  UNL1        0.0000
     20 H           7.6670    3.7774    1.3145 H       1  UNL1        0.0000
     21 H           6.0736    4.5204    1.3740 H       1  UNL1        0.0000
     22 H           6.2354    2.8160    0.9705 H       1  UNL1        0.0000
     23 H           6.9949    4.4814    5.4940 H       1  UNL1        0.0000
     24 H           7.6188    5.2919    4.0678 H       1  UNL1        0.0000
     25 H           8.4545    3.9035    4.7166 H       1  UNL1        0.0000
     26 H           1.8049    1.9141    5.9903 H       1  UNL1        0.0000
     27 H           2.4504    1.2750    4.4891 H       1  UNL1        0.0000
     28 H           1.6212    2.8256    4.5025 H       1  UNL1        0.0000
     29 H           4.6337    1.9145    7.4738 H       1  UNL1        0.0000
     30 H           6.0661    2.4218    6.6037 H       1  UNL1        0.0000
     31 H           5.1811    0.9969    6.0879 H       1  UNL1        0.0000
     32 H           3.1336    4.6569    7.1436 H       1  UNL1        0.0000
     33 H           3.0073    5.3936    5.5568 H       1  UNL1        0.0000
     34 H           4.5581    5.3182    6.3693 H       1  UNL1        0.0000
     35 H           3.0262    9.3426    2.5831 H       1  UNL1        0.0000
     36 H           1.6332    5.4044    1.6595 H       1  UNL1        0.0000
     37 H           1.3232    7.8623    1.5877 H       1  UNL1        0.0000
     38 H           5.0267    8.3799    3.6535 H       1  UNL1        0.0000
     39 H           5.3313    5.9231    3.7194 H       1  UNL1        0.0000
@<TRIPOS>BOND
     1    22     4    1
     2    20     4    1
     3    21     4    1
     4    37    12    1
     5     4     2    1
     6    36    11    1
     7    12    11   ar
     8    12    13   ar
     9    11    16   ar
    10    35    13    1
    11    13    14   ar
    12     1    16    1
    13     1    10    1
    14    16    15   ar
    15    19     3    1
    16    14    15   ar
    17    14    38    1
    18    15    39    1
    19    17     3    1
    20     2     3    1
    21     2    10    1
    22     2     5    1
    23     3    18    1
    24    10     6    1
    25    24     5    1
    26    27     7    1
    27    28     7    1
    28     5    25    1
    29     5    23    1
    30     7     6    1
    31     7    26    1
    32     6     9    1
    33     6     8    1
    34    33     9    1
    35    31     8    1
    36     9    34    1
    37     9    32    1
    38     8    30    1
    39     8    29    1
