@<TRIPOS>MOLECULE
1
 23 24 0 0 0
SMALL
GASTEIGER

@<TRIPOS>ATOM
      1 P          10.0677   17.9664    1.5629 P.3     1  UNL1       -0.0098
      2 C          10.3523   19.3038    0.3667 C.ar    1  UNL1       -0.0142
      3 C          10.1281   20.6330    0.7283 C.ar    1  UNL1       -0.0535
      4 H           9.6978   20.8528    1.7050 H       1  UNL1        0.0624
      5 C          10.4360   21.6646   -0.1382 C.ar    1  UNL1       -0.0611
      6 H          10.2429   22.6864    0.1550 H       1  UNL1        0.0618
      7 C          10.9768   21.3887   -1.3840 C.ar    1  UNL1       -0.0617
      8 H          11.2066   22.1932   -2.0671 H       1  UNL1        0.0618
      9 C          11.2316   20.0740   -1.7445 C.ar    1  UNL1       -0.0611
     10 H          11.6709   19.8545   -2.7075 H       1  UNL1        0.0618
     11 C          10.9396   19.0428   -0.8738 C.ar    1  UNL1       -0.0535
     12 H          11.1611   18.0203   -1.1480 H       1  UNL1        0.0624
     13 C           9.1795   16.7335    0.5716 C.ar    1  UNL1       -0.0142
     14 C           8.5774   16.9764   -0.6668 C.ar    1  UNL1       -0.0535
     15 H           8.6336   17.9627   -1.1061 H       1  UNL1        0.0624
     16 C           7.9072   15.9696   -1.3340 C.ar    1  UNL1       -0.0611
     17 H           7.4477   16.1769   -2.2915 H       1  UNL1        0.0618
     18 C           7.8176   14.6973   -0.7907 C.ar    1  UNL1       -0.0617
     19 H           7.2947   13.9137   -1.3189 H       1  UNL1        0.0618
     20 C           8.4163   14.4387    0.4337 C.ar    1  UNL1       -0.0611
     21 H           8.3635   13.4466    0.8614 H       1  UNL1        0.0618
     22 C           9.0903   15.4401    1.1023 C.ar    1  UNL1       -0.0535
     23 H           9.5690   15.2323    2.0514 H       1  UNL1        0.0624
@<TRIPOS>BOND
     1    10     9    1
     2    17    16    1
     3     8     7    1
     4     9     7   ar
     5     9    11   ar
     6     7     5   ar
     7    16    18   ar
     8    16    14   ar
     9    19    18    1
    10    12    11    1
    11    15    14    1
    12    11     2   ar
    13    18    20   ar
    14    14    13   ar
    15     5     6    1
    16     5     3   ar
    17     2     3   ar
    18     2     1    1
    19    20    21    1
    20    20    22   ar
    21    13    22   ar
    22    13     1    1
    23     3     4    1
    24    22    23    1
