@<TRIPOS>MOLECULE
1
 22 21 0 0 0
SMALL
GASTEIGER

@<TRIPOS>ATOM
      1 P          -0.4785    0.2498    5.5193 P.3     1  UNL1       -0.1067
      2 C           0.9735    1.3861    5.6976 C.3     1  UNL1       -0.0351
      3 C           1.8204    1.4480    4.4362 C.3     1  UNL1       -0.0613
      4 H           2.6187    2.1806    4.5472 H       1  UNL1        0.0233
      5 H           2.2732    0.4827    4.2203 H       1  UNL1        0.0233
      6 H           1.1997    1.7342    3.5909 H       1  UNL1        0.0233
      7 H           1.5802    1.0630    6.5485 H       1  UNL1        0.0310
      8 H           0.5560    2.3759    5.9115 H       1  UNL1        0.0310
      9 C           0.3688   -1.3879    5.6692 C.3     1  UNL1       -0.0351
     10 C          -0.6290   -2.5365    5.7043 C.3     1  UNL1       -0.0613
     11 H          -0.1186   -3.4949    5.6288 H       1  UNL1        0.0233
     12 H          -1.2073   -2.5273    6.6255 H       1  UNL1        0.0233
     13 H          -1.3209   -2.4415    4.8676 H       1  UNL1        0.0233
     14 H           1.0087   -1.3922    6.5571 H       1  UNL1        0.0310
     15 H           1.0093   -1.4885    4.7885 H       1  UNL1        0.0310
     16 C          -1.2524    0.4318    7.1961 C.3     1  UNL1       -0.0351
     17 C          -0.3536    0.3968    8.4263 C.3     1  UNL1       -0.0613
     18 H          -0.9706    0.4253    9.3235 H       1  UNL1        0.0233
     19 H           0.2425   -0.5124    8.4618 H       1  UNL1        0.0233
     20 H           0.3147    1.2541    8.4538 H       1  UNL1        0.0233
     21 H          -2.0013   -0.3634    7.2609 H       1  UNL1        0.0310
     22 H          -1.7986    1.3787    7.1574 H       1  UNL1        0.0310
@<TRIPOS>BOND
     1     6     3    1
     2     5     3    1
     3     3     4    1
     4     3     2    1
     5    15     9    1
     6    13    10    1
     7     1     9    1
     8     1     2    1
     9     1    16    1
    10    11    10    1
    11     9    10    1
    12     9    14    1
    13     2     8    1
    14     2     7    1
    15    10    12    1
    16    22    16    1
    17    16    21    1
    18    16    17    1
    19    17    20    1
    20    17    19    1
    21    17    18    1
