@<TRIPOS>MOLECULE
1
 22 21 0 0 0
SMALL
GASTEIGER

@<TRIPOS>ATOM
      1 P           1.7890    9.6740    4.6126 P.3     1  UNL1       -0.1067
      2 C           0.0316    9.7235    5.1804 C.3     1  UNL1       -0.0351
      3 C          -0.4086    8.4204    5.8312 C.3     1  UNL1       -0.0613
      4 C           2.7265    9.8430    6.2032 C.3     1  UNL1       -0.0351
      5 C           2.4876   11.0708    7.0732 C.3     1  UNL1       -0.0613
      6 C           1.9530   11.3814    3.9183 C.3     1  UNL1       -0.0351
      7 C           1.2274   11.5556    2.5910 C.3     1  UNL1       -0.0613
      8 H          -0.5805    9.9106    4.2934 H       1  UNL1        0.0310
      9 H          -0.0967   10.5680    5.8653 H       1  UNL1        0.0310
     10 H          -1.4596    8.4694    6.1109 H       1  UNL1        0.0233
     11 H          -0.2727    7.5954    5.1332 H       1  UNL1        0.0233
     12 H           0.1745    8.2101    6.7253 H       1  UNL1        0.0233
     13 H           3.7809    9.7858    5.9171 H       1  UNL1        0.0310
     14 H           2.5019    8.9323    6.7681 H       1  UNL1        0.0310
     15 H           3.0525   10.9708    7.9988 H       1  UNL1        0.0233
     16 H           2.8205   11.9782    6.5758 H       1  UNL1        0.0233
     17 H           1.4379   11.1806    7.3356 H       1  UNL1        0.0233
     18 H           3.0263   11.5508    3.7782 H       1  UNL1        0.0310
     19 H           1.5741   12.0977    4.6536 H       1  UNL1        0.0310
     20 H           1.4391   12.5382    2.1737 H       1  UNL1        0.0233
     21 H           1.5595   10.8059    1.8765 H       1  UNL1        0.0233
     22 H           0.1508   11.4623    2.7159 H       1  UNL1        0.0233
@<TRIPOS>BOND
     1    21     7    1
     2    20     7    1
     3     7    22    1
     4     7     6    1
     5    18     6    1
     6     6     1    1
     7     6    19    1
     8     8     2    1
     9     1     2    1
    10     1     4    1
    11    11     3    1
    12     2     3    1
    13     2     9    1
    14     3    10    1
    15     3    12    1
    16    13     4    1
    17     4    14    1
    18     4     5    1
    19    16     5    1
    20     5    17    1
    21     5    15    1
