@<TRIPOS>MOLECULE
1
 22 21 0 0 0
SMALL
GASTEIGER

@<TRIPOS>ATOM
      1 P          -4.5473    0.1423    2.3929 P.3     1  UNL1       -0.1067
      2 C          -4.9312    1.3251    1.0229 C.3     1  UNL1       -0.0351
      3 C          -4.3081    0.9121   -0.3038 C.3     1  UNL1       -0.0613
      4 H          -4.3424    1.7372   -1.0129 H       1  UNL1        0.0233
      5 H          -3.2681    0.6290   -0.1551 H       1  UNL1        0.0233
      6 H          -4.8364    0.0679   -0.7417 H       1  UNL1        0.0233
      7 H          -4.5253    2.2898    1.3441 H       1  UNL1        0.0310
      8 H          -6.0163    1.4153    0.9186 H       1  UNL1        0.0310
      9 C          -5.3598   -1.3761    1.7114 C.3     1  UNL1       -0.0351
     10 C          -5.4276   -2.5139    2.7198 C.3     1  UNL1       -0.0613
     11 H          -5.8816   -3.3956    2.2696 H       1  UNL1        0.0233
     12 H          -4.4239   -2.7756    3.0512 H       1  UNL1        0.0233
     13 H          -6.0128   -2.2344    3.5937 H       1  UNL1        0.0233
     14 H          -4.7542   -1.6887    0.8545 H       1  UNL1        0.0310
     15 H          -6.3578   -1.1089    1.3481 H       1  UNL1        0.0310
     16 C          -5.7626    0.7021    3.6766 C.3     1  UNL1       -0.0351
     17 C          -7.2512    0.6829    3.3485 C.3     1  UNL1       -0.0613
     18 H          -7.8099    1.0605    4.2038 H       1  UNL1        0.0233
     19 H          -7.4845    1.3158    2.4956 H       1  UNL1        0.0233
     20 H          -7.6018   -0.3248    3.1400 H       1  UNL1        0.0233
     21 H          -5.4428    1.7170    3.9331 H       1  UNL1        0.0310
     22 H          -5.5676    0.0772    4.5552 H       1  UNL1        0.0310
@<TRIPOS>BOND
     1     4     3    1
     2     6     3    1
     3     3     5    1
     4     3     2    1
     5    14     9    1
     6     8     2    1
     7     2     7    1
     8     2     1    1
     9    15     9    1
    10     9     1    1
    11     9    10    1
    12    11    10    1
    13     1    16    1
    14    19    17    1
    15    10    12    1
    16    10    13    1
    17    20    17    1
    18    17    16    1
    19    17    18    1
    20    16    21    1
    21    16    22    1
