@<TRIPOS>MOLECULE
1
 22 21 0 0 0
SMALL
GASTEIGER

@<TRIPOS>ATOM
      1 P           2.8218    6.3084    2.0807 P.3     1  UNL1       -0.1067
      2 C           2.9652    6.5985    0.2569 C.3     1  UNL1       -0.0351
      3 C           1.7536    7.2814   -0.3575 C.3     1  UNL1       -0.0613
      4 C           1.7372    3.7201    1.3437 C.3     1  UNL1       -0.0613
      5 C           1.5539    4.9650    2.2027 C.3     1  UNL1       -0.0351
      6 C           4.4267    5.4071    2.2729 C.3     1  UNL1       -0.0351
      7 C           4.6495    4.8601    3.6736 C.3     1  UNL1       -0.0613
      8 H           3.1585    5.6378   -0.2308 H       1  UNL1        0.0310
      9 H           3.8481    7.2325    0.1210 H       1  UNL1        0.0310
     10 H           1.8851    7.3835   -1.4331 H       1  UNL1        0.0233
     11 H           0.8441    6.7124   -0.1749 H       1  UNL1        0.0233
     12 H           1.6327    8.2766    0.0633 H       1  UNL1        0.0233
     13 H           0.9209    3.0251    1.5343 H       1  UNL1        0.0233
     14 H           1.7262    3.9647    0.2843 H       1  UNL1        0.0233
     15 H           2.6696    3.2114    1.5764 H       1  UNL1        0.0233
     16 H           0.5966    5.4455    1.9749 H       1  UNL1        0.0310
     17 H           1.5206    4.6939    3.2633 H       1  UNL1        0.0310
     18 H           5.2028    6.1415    2.0334 H       1  UNL1        0.0310
     19 H           4.4732    4.6066    1.5280 H       1  UNL1        0.0310
     20 H           5.6136    4.3575    3.7372 H       1  UNL1        0.0233
     21 H           4.6379    5.6733    4.3946 H       1  UNL1        0.0233
     22 H           3.8745    4.1460    3.9447 H       1  UNL1        0.0233
@<TRIPOS>BOND
     1    10     3    1
     2     3    11    1
     3     3    12    1
     4     3     2    1
     5     8     2    1
     6     9     2    1
     7     2     1    1
     8    14     4    1
     9     4    13    1
    10     4    15    1
    11     4     5    1
    12    19     6    1
    13    16     5    1
    14    18     6    1
    15     1     5    1
    16     1     6    1
    17     5    17    1
    18     6     7    1
    19     7    20    1
    20     7    22    1
    21     7    21    1
