@<TRIPOS>MOLECULE
1
 22 21 0 0 0
SMALL
GASTEIGER

@<TRIPOS>ATOM
      1 P          -3.1439    0.2497    2.1408 P.3     1  UNL1       -0.1067
      2 C          -4.5959    1.3860    1.9625 C.3     1  UNL1       -0.0351
      3 C          -3.9914   -1.3880    1.9910 C.3     1  UNL1       -0.0351
      4 C          -2.9936   -2.5365    1.9559 C.3     1  UNL1       -0.0613
      5 C          -2.3701    0.4317    0.4640 C.3     1  UNL1       -0.0351
      6 C          -5.4430    1.4480    3.2238 C.3     1  UNL1       -0.0613
      7 C          -3.2689    0.3970   -0.7662 C.3     1  UNL1       -0.0613
      8 H          -5.2026    1.0628    1.1116 H       1  UNL1        0.0310
      9 H          -4.1784    2.3758    1.7486 H       1  UNL1        0.0310
     10 H          -4.6312   -1.3922    1.1031 H       1  UNL1        0.0310
     11 H          -4.6319   -1.4886    2.8716 H       1  UNL1        0.0310
     12 H          -3.5040   -3.4950    2.0314 H       1  UNL1        0.0233
     13 H          -2.4153   -2.5274    1.0346 H       1  UNL1        0.0233
     14 H          -2.3017   -2.4415    2.7925 H       1  UNL1        0.0233
     15 H          -1.6214   -0.3637    0.3992 H       1  UNL1        0.0310
     16 H          -1.8236    1.3784    0.5027 H       1  UNL1        0.0310
     17 H          -6.2414    2.1804    3.1125 H       1  UNL1        0.0233
     18 H          -5.8957    0.4827    3.4398 H       1  UNL1        0.0233
     19 H          -4.8224    1.7344    4.0691 H       1  UNL1        0.0233
     20 H          -2.6518    0.4255   -1.6634 H       1  UNL1        0.0233
     21 H          -3.8651   -0.5121   -0.8019 H       1  UNL1        0.0233
     22 H          -3.9370    1.2544   -0.7937 H       1  UNL1        0.0233
@<TRIPOS>BOND
     1    20     7    1
     2    21     7    1
     3    22     7    1
     4     7     5    1
     5    15     5    1
     6     5    16    1
     7     5     1    1
     8    13     4    1
     9    10     3    1
    10     8     2    1
    11     9     2    1
    12     4     3    1
    13     4    12    1
    14     4    14    1
    15     2     1    1
    16     2     6    1
    17     3     1    1
    18     3    11    1
    19    17     6    1
    20     6    18    1
    21     6    19    1
