@<TRIPOS>MOLECULE
1
 22 21 0 0 0
SMALL
GASTEIGER

@<TRIPOS>ATOM
      1 P          -0.4910    0.1422    3.8222 P.3     1  UNL1       -0.1067
      2 C          -0.1076    1.3244    5.1928 C.3     1  UNL1       -0.0351
      3 C           0.3216   -1.3765    4.5028 C.3     1  UNL1       -0.0351
      4 C          -0.7302    0.9102    6.5194 C.3     1  UNL1       -0.0613
      5 C           0.7245    0.7028    2.5390 C.3     1  UNL1       -0.0351
      6 C           0.3899   -2.5138    3.4937 C.3     1  UNL1       -0.0613
      7 C           2.2130    0.6835    2.8674 C.3     1  UNL1       -0.0613
      8 H          -0.5143    2.2890    4.8723 H       1  UNL1        0.0310
      9 H           0.9774    1.4151    5.2969 H       1  UNL1        0.0310
     10 H          -0.2843   -1.6898    5.3593 H       1  UNL1        0.0310
     11 H           1.3194   -1.1093    4.8665 H       1  UNL1        0.0310
     12 H          -0.6959    1.7349    7.2290 H       1  UNL1        0.0233
     13 H          -1.7702    0.6269    6.3709 H       1  UNL1        0.0233
     14 H          -0.2015    0.0659    6.9565 H       1  UNL1        0.0233
     15 H           0.4047    1.7179    2.2830 H       1  UNL1        0.0310
     16 H           0.5296    0.0784    1.6600 H       1  UNL1        0.0310
     17 H           0.8442   -3.3954    3.9436 H       1  UNL1        0.0233
     18 H          -0.6136   -2.7757    3.1620 H       1  UNL1        0.0233
     19 H           0.9752   -2.2336    2.6201 H       1  UNL1        0.0233
     20 H           2.7718    1.0614    2.0123 H       1  UNL1        0.0233
     21 H           2.4462    1.3159    3.7205 H       1  UNL1        0.0233
     22 H           2.5635   -0.3243    3.0755 H       1  UNL1        0.0233
@<TRIPOS>BOND
     1    16     5    1
     2    20     7    1
     3    15     5    1
     4     5     7    1
     5     5     1    1
     6    19     6    1
     7     7    22    1
     8     7    21    1
     9    18     6    1
    10     6    17    1
    11     6     3    1
    12     1     3    1
    13     1     2    1
    14     3    11    1
    15     3    10    1
    16     8     2    1
    17     2     9    1
    18     2     4    1
    19    13     4    1
    20     4    14    1
    21     4    12    1
