@<TRIPOS>MOLECULE
1
 13 12 0 0 0
SMALL
GASTEIGER

@<TRIPOS>ATOM
      1 P           0.5192    6.5571    8.1680 P.3     1  UNL1       -0.1154
      2 C           0.2050    5.5572    9.6786 C.3     1  UNL1       -0.0447
      3 C           0.6417    5.2189    6.9248 C.3     1  UNL1       -0.0447
      4 C          -1.1900    7.1573    7.8104 C.3     1  UNL1       -0.0447
      5 H           1.1136    5.0051    9.9168 H       1  UNL1        0.0277
      6 H          -0.0408    6.2089   10.5175 H       1  UNL1        0.0277
      7 H          -0.6162    4.8581    9.5128 H       1  UNL1        0.0277
      8 H           1.5236    4.6204    7.1496 H       1  UNL1        0.0277
      9 H          -0.2506    4.5903    6.9483 H       1  UNL1        0.0277
     10 H           0.7567    5.6571    5.9334 H       1  UNL1        0.0277
     11 H          -1.2056    7.5879    6.8101 H       1  UNL1        0.0277
     12 H          -1.9004    6.3312    7.8574 H       1  UNL1        0.0277
     13 H          -1.4826    7.9244    8.5270 H       1  UNL1        0.0277
@<TRIPOS>BOND
     1    10     3    1
     2    11     4    1
     3     3     9    1
     4     3     8    1
     5     3     1    1
     6     4    12    1
     7     4     1    1
     8     4    13    1
     9     1     2    1
    10     7     2    1
    11     2     5    1
    12     2     6    1
