@<TRIPOS>MOLECULE
1
 52 54 0 0 0
SMALL
GASTEIGER

@<TRIPOS>ATOM
      1 P          11.8022    6.5046   10.0537 P.3     1  UNL1       -0.0964
      2 C          12.2245    5.8341   11.7763 C.3     1  UNL1       -0.0200
      3 C          13.5495    5.0687   11.7736 C.3     1  UNL1       -0.0463
      4 C          13.6763    4.2025   13.0230 C.3     1  UNL1       -0.0525
      5 C          13.6185    5.0785   14.2694 C.3     1  UNL1       -0.0530
      6 C          12.3353    5.9007   14.2718 C.3     1  UNL1       -0.0525
      7 C          12.2057    6.7501   13.0041 C.3     1  UNL1       -0.0463
      8 C          13.3292    7.4608    9.4870 C.3     1  UNL1       -0.0200
      9 C          14.4643    6.5812    8.9609 C.3     1  UNL1       -0.0463
     10 C          15.4840    7.4361    8.2123 C.3     1  UNL1       -0.0525
     11 C          16.0591    8.5041    9.1374 C.3     1  UNL1       -0.0530
     12 C          14.9391    9.3588    9.7222 C.3     1  UNL1       -0.0525
     13 C          13.9140    8.4908   10.4542 C.3     1  UNL1       -0.0463
     14 C          10.7122    7.9468   10.5809 C.3     1  UNL1       -0.0200
     15 C          10.4506    9.0047    9.5154 C.3     1  UNL1       -0.0463
     16 C           9.6440   10.1601   10.1081 C.3     1  UNL1       -0.0525
     17 C           8.3214    9.6705   10.6874 C.3     1  UNL1       -0.0530
     18 C           8.5642    8.5734   11.7185 C.3     1  UNL1       -0.0525
     19 C           9.3707    7.4340   11.1014 C.3     1  UNL1       -0.0463
     20 H          11.4279    5.0943   11.9134 H       1  UNL1        0.0349
     21 H          14.3833    5.7732   11.7644 H       1  UNL1        0.0271
     22 H          13.6125    4.4376   10.8839 H       1  UNL1        0.0271
     23 H          14.6191    3.6516   12.9954 H       1  UNL1        0.0265
     24 H          12.8662    3.4708   13.0445 H       1  UNL1        0.0265
     25 H          14.4809    5.7503   14.2812 H       1  UNL1        0.0265
     26 H          13.6661    4.4607   15.1685 H       1  UNL1        0.0265
     27 H          12.3147    6.5544   15.1474 H       1  UNL1        0.0265
     28 H          11.4776    5.2275   14.3385 H       1  UNL1        0.0265
     29 H          13.0289    7.4657   12.9686 H       1  UNL1        0.0271
     30 H          11.2722    7.3057   13.0816 H       1  UNL1        0.0271
     31 H          12.9402    8.0073    8.6149 H       1  UNL1        0.0349
     32 H          14.9755    6.0794    9.7805 H       1  UNL1        0.0271
     33 H          14.0640    5.8091    8.3016 H       1  UNL1        0.0271
     34 H          16.2864    6.8016    7.8300 H       1  UNL1        0.0265
     35 H          15.0063    7.9185    7.3556 H       1  UNL1        0.0265
     36 H          16.6070    8.0205    9.9497 H       1  UNL1        0.0265
     37 H          16.7628    9.1359    8.5910 H       1  UNL1        0.0265
     38 H          15.3558   10.0949   10.4138 H       1  UNL1        0.0265
     39 H          14.4420    9.9056    8.9162 H       1  UNL1        0.0265
     40 H          14.4127    7.9827   11.2804 H       1  UNL1        0.0271
     41 H          13.1395    9.1367   10.8685 H       1  UNL1        0.0271
     42 H          11.2429    8.4360   11.4037 H       1  UNL1        0.0349
     43 H          11.3848    9.4049    9.1187 H       1  UNL1        0.0271
     44 H           9.8946    8.5532    8.6930 H       1  UNL1        0.0271
     45 H          10.2292   10.6377   10.8986 H       1  UNL1        0.0265
     46 H           9.4571   10.9106    9.3360 H       1  UNL1        0.0265
     47 H           7.7829   10.5038   11.1440 H       1  UNL1        0.0265
     48 H           7.6988    9.2756    9.8813 H       1  UNL1        0.0265
     49 H           9.1087    8.9905   12.5703 H       1  UNL1        0.0265
     50 H           7.6097    8.1927   12.0883 H       1  UNL1        0.0265
     51 H           9.5211    6.6415   11.8370 H       1  UNL1        0.0271
     52 H           8.8066    7.0041   10.2714 H       1  UNL1        0.0271
@<TRIPOS>BOND
     1    35    10    1
     2    34    10    1
     3    10     9    1
     4    10    11    1
     5    33     9    1
     6    37    11    1
     7    31     8    1
     8    44    15    1
     9    39    12    1
    10     9     8    1
    11     9    32    1
    12    43    15    1
    13    11    12    1
    14    11    36    1
    15    46    16    1
    16     8     1    1
    17     8    13    1
    18    15    16    1
    19    15    14    1
    20    12    38    1
    21    12    13    1
    22    48    17    1
    23     1    14    1
    24     1     2    1
    25    16    17    1
    26    16    45    1
    27    52    19    1
    28    13    41    1
    29    13    40    1
    30    14    19    1
    31    14    42    1
    32    17    47    1
    33    17    18    1
    34    22     3    1
    35    19    18    1
    36    19    51    1
    37    18    50    1
    38    18    49    1
    39    21     3    1
    40     3     2    1
    41     3     4    1
    42     2    20    1
    43     2     7    1
    44    29     7    1
    45    23     4    1
    46     7    30    1
    47     7     6    1
    48     4    24    1
    49     4     5    1
    50     5     6    1
    51     5    25    1
    52     5    26    1
    53     6    28    1
    54     6    27    1
