@<TRIPOS>MOLECULE
1
 52 54 0 0 0
SMALL
GASTEIGER

@<TRIPOS>ATOM
      1 P           9.9988    5.7175    6.6636 P.3     1  UNL1       -0.0964
      2 C           9.6510    4.3885    5.3570 C.3     1  UNL1       -0.0200
      3 C           8.3775    3.6072    5.6865 C.3     1  UNL1       -0.0463
      4 C           8.3085    2.3125    4.8823 C.3     1  UNL1       -0.0525
      5 C           8.3233    2.6264    3.3906 C.3     1  UNL1       -0.0530
      6 C           9.5579    3.4495    3.0433 C.3     1  UNL1       -0.0525
      7 C           9.6262    4.7392    3.8661 C.3     1  UNL1       -0.0463
      8 C          10.9863    6.9051    5.5869 C.3     1  UNL1       -0.0200
      9 C          12.3701    6.3294    5.2905 C.3     1  UNL1       -0.0463
     10 C          13.0916    7.1820    4.2502 C.3     1  UNL1       -0.0525
     11 C          13.2385    8.6150    4.7512 C.3     1  UNL1       -0.0530
     12 C          11.8764    9.1957    5.1145 C.3     1  UNL1       -0.0525
     13 C          11.1532    8.3172    6.1354 C.3     1  UNL1       -0.0463
     14 C           8.3972    6.7058    6.8302 C.3     1  UNL1       -0.0200
     15 C           7.7514    7.2226    5.5440 C.3     1  UNL1       -0.0463
     16 C           6.6564    8.2335    5.8889 C.3     1  UNL1       -0.0525
     17 C           5.5942    7.6026    6.7836 C.3     1  UNL1       -0.0530
     18 C           6.2336    7.0355    8.0473 C.3     1  UNL1       -0.0525
     19 C           7.3229    6.0295    7.6837 C.3     1  UNL1       -0.0463
     20 H          10.4968    3.7097    5.5155 H       1  UNL1        0.0349
     21 H           8.3489    3.3807    6.7550 H       1  UNL1        0.0271
     22 H           7.5018    4.2069    5.4318 H       1  UNL1        0.0271
     23 H           9.1599    1.6772    5.1340 H       1  UNL1        0.0265
     24 H           7.3988    1.7659    5.1415 H       1  UNL1        0.0265
     25 H           8.3169    1.7019    2.8097 H       1  UNL1        0.0265
     26 H           7.4242    3.1905    3.1287 H       1  UNL1        0.0265
     27 H          10.4526    2.8539    3.2389 H       1  UNL1        0.0265
     28 H           9.5503    3.7003    1.9796 H       1  UNL1        0.0265
     29 H          10.5261    5.2709    3.5601 H       1  UNL1        0.0271
     30 H           8.7617    5.3608    3.6266 H       1  UNL1        0.0271
     31 H          10.4316    6.9834    4.6466 H       1  UNL1        0.0349
     32 H          12.9564    6.3182    6.2112 H       1  UNL1        0.0271
     33 H          12.2929    5.2971    4.9430 H       1  UNL1        0.0271
     34 H          14.0764    6.7579    4.0429 H       1  UNL1        0.0265
     35 H          12.5249    7.1809    3.3149 H       1  UNL1        0.0265
     36 H          13.8814    8.6230    5.6345 H       1  UNL1        0.0265
     37 H          13.7159    9.2337    3.9882 H       1  UNL1        0.0265
     38 H          11.9974   10.2037    5.5191 H       1  UNL1        0.0265
     39 H          11.2650    9.2734    4.2114 H       1  UNL1        0.0265
     40 H          11.7315    8.2753    7.0590 H       1  UNL1        0.0271
     41 H          10.1864    8.7718    6.3565 H       1  UNL1        0.0271
     42 H           8.7348    7.5801    7.4067 H       1  UNL1        0.0349
     43 H           8.4825    7.7050    4.8949 H       1  UNL1        0.0271
     44 H           7.3018    6.3944    4.9949 H       1  UNL1        0.0271
     45 H           7.1018    9.0896    6.4032 H       1  UNL1        0.0265
     46 H           6.1963    8.6026    4.9691 H       1  UNL1        0.0265
     47 H           4.8388    8.3466    7.0458 H       1  UNL1        0.0265
     48 H           5.0944    6.7976    6.2396 H       1  UNL1        0.0265
     49 H           6.6630    7.8521    8.6333 H       1  UNL1        0.0265
     50 H           5.4744    6.5495    8.6640 H       1  UNL1        0.0265
     51 H           7.7715    5.6165    8.5894 H       1  UNL1        0.0271
     52 H           6.8602    5.2060    7.1428 H       1  UNL1        0.0271
@<TRIPOS>BOND
     1    28     6    1
     2    25     5    1
     3     6    27    1
     4     6     5    1
     5     6     7    1
     6    26     5    1
     7    35    10    1
     8     5     4    1
     9    29     7    1
    10    30     7    1
    11     7     2    1
    12    37    11    1
    13    34    10    1
    14    39    12    1
    15    10    11    1
    16    10     9    1
    17    31     8    1
    18    11    12    1
    19    11    36    1
    20     4    23    1
    21     4    24    1
    22     4     3    1
    23    43    15    1
    24    33     9    1
    25    46    16    1
    26    44    15    1
    27    12    38    1
    28    12    13    1
    29     9     8    1
    30     9    32    1
    31     2    20    1
    32     2     3    1
    33     2     1    1
    34    22     3    1
    35    15    16    1
    36    15    14    1
    37     8    13    1
    38     8     1    1
    39     3    21    1
    40    16    45    1
    41    16    17    1
    42    13    41    1
    43    13    40    1
    44    48    17    1
    45     1    14    1
    46    17    47    1
    47    17    18    1
    48    14    42    1
    49    14    19    1
    50    52    19    1
    51    19    18    1
    52    19    51    1
    53    18    49    1
    54    18    50    1
