@<TRIPOS>MOLECULE
1
 53 54 0 0 0
SMALL
GASTEIGER

@<TRIPOS>ATOM
      1 P           3.5211    4.4184    3.7385 P.3     1  UNL1        0.0000
      2 SI          4.5161    6.6967    2.0731 Si      1  UNL1        0.0000
      3 SI          1.6826    6.9018    3.8174 Si      1  UNL1        0.0000
      4 N           4.7861    4.9314    4.6994 N.2     1  UNL1        0.5000
      5 N           2.4473    4.1285    5.0065 N.2     1  UNL1        0.0000
      6 N           5.3346    5.0103    6.9458 N.pl3   1  UNL1        0.5000
      7 C           2.9437    5.8688    2.8072 C.3     1  UNL1        0.0000
      8 H           2.3918    5.4281    1.9721 H       1  UNL1        0.0000
      9 C           4.4635    4.7493    5.9554 C.2     1  UNL1        0.0000
     10 C           3.0874    4.2175    6.1256 C.2     1  UNL1        0.0000
     11 C           2.4886    3.7037    7.3547 C.ar    1  UNL1        0.0000
     12 C           3.2111    2.8645    8.2026 C.ar    1  UNL1        0.0000
     13 H           4.2347    2.6183    7.9639 H       1  UNL1        0.0000
     14 C           2.6051    2.3220    9.3195 C.ar    1  UNL1        0.0000
     15 H           3.1657    1.6630    9.9656 H       1  UNL1        0.0000
     16 C           1.2815    2.6148    9.6074 C.ar    1  UNL1        0.0000
     17 H           0.8135    2.1926   10.4841 H       1  UNL1        0.0000
     18 C           0.5557    3.4381    8.7619 C.ar    1  UNL1        0.0000
     19 H          -0.4795    3.6572    8.9775 H       1  UNL1        0.0000
     20 C           1.1498    3.9712    7.6338 C.ar    1  UNL1        0.0000
     21 H           0.5906    4.6017    6.9590 H       1  UNL1        0.0000
     22 C           4.9392    5.4280    8.2700 C.3     1  UNL1        0.0000
     23 H           5.2677    6.4585    8.4391 H       1  UNL1        0.0000
     24 H           5.4038    4.7899    9.0257 H       1  UNL1        0.0000
     25 H           3.8605    5.3862    8.3862 H       1  UNL1        0.0000
     26 C           6.6895    5.3634    6.5858 C.3     1  UNL1        0.0000
     27 H           6.9462    4.8704    5.6513 H       1  UNL1        0.0000
     28 H           7.3621    5.0314    7.3768 H       1  UNL1        0.0000
     29 H           6.8014    6.4443    6.4535 H       1  UNL1        0.0000
     30 C           5.8739    5.4207    1.6911 C.3     1  UNL1        0.0000
     31 H           5.5516    4.6917    0.9526 H       1  UNL1        0.0000
     32 H           6.1426    4.8850    2.5958 H       1  UNL1        0.0000
     33 H           6.7712    5.8984    1.3075 H       1  UNL1        0.0000
     34 C           5.2234    7.9764    3.2993 C.3     1  UNL1        0.0000
     35 H           6.0724    8.4914    2.8613 H       1  UNL1        0.0000
     36 H           5.5657    7.4845    4.2036 H       1  UNL1        0.0000
     37 H           4.4908    8.7260    3.5789 H       1  UNL1        0.0000
     38 C           3.9955    7.5400    0.4442 C.3     1  UNL1        0.0000
     39 H           3.2425    8.3033    0.6003 H       1  UNL1        0.0000
     40 H           3.5974    6.8226   -0.2661 H       1  UNL1        0.0000
     41 H           4.8529    8.0154   -0.0187 H       1  UNL1        0.0000
     42 C           2.3480    7.4063    5.5388 C.3     1  UNL1        0.0000
     43 H           2.0600    8.4239    5.7849 H       1  UNL1        0.0000
     44 H           3.4306    7.3500    5.5773 H       1  UNL1        0.0000
     45 H           1.9579    6.7579    6.3174 H       1  UNL1        0.0000
     46 C           1.3021    8.4969    2.8425 C.3     1  UNL1        0.0000
     47 H           0.9653    8.2761    1.8357 H       1  UNL1        0.0000
     48 H           2.1622    9.1526    2.7679 H       1  UNL1        0.0000
     49 H           0.5099    9.0495    3.3356 H       1  UNL1        0.0000
     50 C           0.0581    5.9115    3.9604 C.3     1  UNL1        0.0000
     51 H          -0.6458    6.3983    4.6298 H       1  UNL1        0.0000
     52 H           0.2402    4.9077    4.3318 H       1  UNL1        0.0000
     53 H          -0.4255    5.8195    2.9916 H       1  UNL1        0.0000
@<TRIPOS>BOND
     1    40    38    1
     2    41    38    1
     3    38    39    1
     4    38     2    1
     5    31    30    1
     6    33    30    1
     7    30     2    1
     8    30    32    1
     9    47    46    1
    10     8     7    1
    11     2     7    1
    12     2    34    1
    13    48    46    1
    14     7     1    1
    15     7     3    1
    16    46    49    1
    17    46     3    1
    18    35    34    1
    19    53    50    1
    20    34    37    1
    21    34    36    1
    22     1     4    1
    23     1     5    1
    24     3    50    1
    25     3    42    1
    26    50    52    1
    27    50    51    1
    28     4     9    2
    29     5    10    2
    30    42    44    1
    31    42    43    1
    32    42    45    1
    33    27    26    1
    34     9    10    1
    35     9     6    1
    36    10    11    1
    37    29    26    1
    38    26     6    1
    39    26    28    1
    40     6    22    1
    41    21    20    1
    42    11    20   ar
    43    11    12   ar
    44    20    18   ar
    45    13    12    1
    46    12    14   ar
    47    22    25    1
    48    22    23    1
    49    22    24    1
    50    18    19    1
    51    18    16   ar
    52    14    16   ar
    53    14    15    1
    54    16    17    1
