@<TRIPOS>MOLECULE
1
 34 36 0 0 0
SMALL
GASTEIGER

@<TRIPOS>ATOM
      1 P           3.8302    6.8186    5.0281 P.3     1  UNL1       -0.0131
      2 C           3.2977    8.5214    4.6042 C.ar    1  UNL1       -0.0147
      3 C           2.4069    8.6193    3.5384 C.ar    1  UNL1       -0.0535
      4 H           2.0691    7.7116    3.0515 H       1  UNL1        0.0624
      5 C           1.9549    9.8533    3.1131 C.ar    1  UNL1       -0.0611
      6 H           1.2604    9.9204    2.2887 H       1  UNL1        0.0618
      7 C           2.3885   11.0041    3.7523 C.ar    1  UNL1       -0.0617
      8 H           2.0307   11.9701    3.4285 H       1  UNL1        0.0618
      9 C           3.2785   10.9141    4.8090 C.ar    1  UNL1       -0.0611
     10 H           3.6185   11.8108    5.3069 H       1  UNL1        0.0618
     11 C           3.7367    9.6794    5.2352 C.ar    1  UNL1       -0.0535
     12 H           4.4291    9.6208    6.0638 H       1  UNL1        0.0624
     13 C           4.7310    7.0503    6.5887 C.ar    1  UNL1       -0.0147
     14 C           6.0008    6.5237    6.7967 C.ar    1  UNL1       -0.0535
     15 H           6.5255    6.0439    5.9820 H       1  UNL1        0.0624
     16 C           6.5858    6.6074    8.0485 C.ar    1  UNL1       -0.0611
     17 H           7.5726    6.1973    8.2066 H       1  UNL1        0.0618
     18 C           5.9084    7.2063    9.0970 C.ar    1  UNL1       -0.0617
     19 H           6.3686    7.2691   10.0719 H       1  UNL1        0.0618
     20 C           4.6325    7.7133    8.9001 C.ar    1  UNL1       -0.0611
     21 H           4.0975    8.1670    9.7215 H       1  UNL1        0.0618
     22 C           4.0411    7.6262    7.6554 C.ar    1  UNL1       -0.0535
     23 H           3.0356    7.9985    7.4969 H       1  UNL1        0.0624
     24 C           5.1866    6.7029    3.8060 C.ar    1  UNL1       -0.0147
     25 C           5.2114    5.6565    2.8933 C.ar    1  UNL1       -0.0535
     26 H           4.4384    4.8982    2.9269 H       1  UNL1        0.0624
     27 C           6.2250    5.5850    1.9521 C.ar    1  UNL1       -0.0611
     28 H           6.2449    4.7707    1.2436 H       1  UNL1        0.0618
     29 C           7.2119    6.5550    1.9167 C.ar    1  UNL1       -0.0617
     30 H           8.0019    6.4960    1.1827 H       1  UNL1        0.0618
     31 C           7.1865    7.6044    2.8226 C.ar    1  UNL1       -0.0611
     32 H           7.9552    8.3629    2.7941 H       1  UNL1        0.0618
     33 C           6.1766    7.6828    3.7616 C.ar    1  UNL1       -0.0535
     34 H           6.1510    8.5017    4.4676 H       1  UNL1        0.0624
@<TRIPOS>BOND
     1    30    29    1
     2    28    27    1
     3    29    27   ar
     4    29    31   ar
     5    27    25   ar
     6     6     5    1
     7    32    31    1
     8    31    33   ar
     9    25    26    1
    10    25    24   ar
    11     4     3    1
    12     5     3   ar
    13     5     7   ar
    14     8     7    1
    15     3     2   ar
    16     7     9   ar
    17    33    24   ar
    18    33    34    1
    19    24     1    1
    20     2     1    1
    21     2    11   ar
    22     9    11   ar
    23     9    10    1
    24     1    13    1
    25    11    12    1
    26    15    14    1
    27    13    14   ar
    28    13    22   ar
    29    14    16   ar
    30    23    22    1
    31    22    20   ar
    32    16    17    1
    33    16    18   ar
    34    20    18   ar
    35    20    21    1
    36    18    19    1
