@<TRIPOS>MOLECULE
1
 31 30 0 0 0
SMALL
GASTEIGER

@<TRIPOS>ATOM
      1 P           2.2900   29.6044   16.7405 P.3     1  UNL1       -0.0980
      2 C           3.1704   28.2739   17.7241 C.3     1  UNL1       -0.0257
      3 C           0.7793   30.2095   17.6974 C.3     1  UNL1       -0.0257
      4 C           1.4755   28.6064   15.3826 C.3     1  UNL1       -0.0257
      5 C           3.9303   28.8050   18.9375 C.3     1  UNL1       -0.0587
      6 C           2.3152   27.0789   18.1398 C.3     1  UNL1       -0.0587
      7 C          -0.4119   29.2560   17.7906 C.3     1  UNL1       -0.0587
      8 C           1.1377   30.7002   19.0984 C.3     1  UNL1       -0.0587
      9 C           2.5307   27.8645   14.5715 C.3     1  UNL1       -0.0587
     10 C           0.6743   29.5458   14.4889 C.3     1  UNL1       -0.0587
     11 H           3.9280   27.9386   17.0021 H       1  UNL1        0.0344
     12 H           0.4732   31.0862   17.1090 H       1  UNL1        0.0344
     13 H           0.7982   27.8835   15.8470 H       1  UNL1        0.0344
     14 H           3.2625   29.0803   19.7486 H       1  UNL1        0.0236
     15 H           4.5332   29.6654   18.6646 H       1  UNL1        0.0236
     16 H           4.6052   28.0307   19.2998 H       1  UNL1        0.0236
     17 H           2.9730   26.2904   18.5045 H       1  UNL1        0.0236
     18 H           1.7326   26.6700   17.3189 H       1  UNL1        0.0236
     19 H           1.6441   27.3454   18.9532 H       1  UNL1        0.0236
     20 H          -0.1498   28.3321   18.2967 H       1  UNL1        0.0236
     21 H          -0.8303   29.0135   16.8187 H       1  UNL1        0.0236
     22 H          -1.1957   29.7417   18.3717 H       1  UNL1        0.0236
     23 H           0.3594   31.3662   19.4683 H       1  UNL1        0.0236
     24 H           2.0768   31.2481   19.0873 H       1  UNL1        0.0236
     25 H           1.2212   29.8659   19.7907 H       1  UNL1        0.0236
     26 H           2.0899   27.4498   13.6665 H       1  UNL1        0.0236
     27 H           2.9730   27.0478   15.1373 H       1  UNL1        0.0236
     28 H           3.3215   28.5546   14.2780 H       1  UNL1        0.0236
     29 H           1.3355   30.3069   14.0766 H       1  UNL1        0.0236
     30 H          -0.1213   30.0483   15.0340 H       1  UNL1        0.0236
     31 H           0.2234   28.9914   13.6668 H       1  UNL1        0.0236
@<TRIPOS>BOND
     1    26     9    1
     2    31    10    1
     3    29    10    1
     4    28     9    1
     5    10    30    1
     6    10     4    1
     7     9    27    1
     8     9     4    1
     9     4    13    1
    10     4     1    1
    11     1     3    1
    12     1     2    1
    13    21     7    1
    14    11     2    1
    15    12     3    1
    16    18     6    1
    17     3     7    1
    18     3     8    1
    19     2     6    1
    20     2     5    1
    21     7    20    1
    22     7    22    1
    23     6    17    1
    24     6    19    1
    25    15     5    1
    26     5    16    1
    27     5    14    1
    28    24     8    1
    29     8    23    1
    30     8    25    1
