@<TRIPOS>MOLECULE
1
 31 30 0 0 0
SMALL
GASTEIGER

@<TRIPOS>ATOM
      1 P           5.1323   33.2894   16.4067 P.3     1  UNL1       -0.0980
      2 C           4.2066   34.8336   16.9503 C.3     1  UNL1       -0.0257
      3 C           6.5088   32.9229   17.6320 C.3     1  UNL1       -0.0257
      4 C           6.0787   33.9508   14.9347 C.3     1  UNL1       -0.0257
      5 C           3.2217   34.6063   18.0948 C.3     1  UNL1       -0.0587
      6 C           5.0875   36.0415   17.2609 C.3     1  UNL1       -0.0587
      7 C           7.7700   33.7801   17.5348 C.3     1  UNL1       -0.0587
      8 C           5.9976   32.9132   19.0713 C.3     1  UNL1       -0.0587
      9 C           6.8217   32.7955   14.2753 C.3     1  UNL1       -0.0587
     10 C           5.1399   34.6176   13.9361 C.3     1  UNL1       -0.0587
     11 H           3.6043   35.0554   16.0588 H       1  UNL1        0.0344
     12 H           6.7771   31.8898   17.3724 H       1  UNL1        0.0344
     13 H           6.8013   34.6856   15.3017 H       1  UNL1        0.0344
     14 H           3.7309   34.4999   19.0479 H       1  UNL1        0.0236
     15 H           2.6243   33.7152   17.9171 H       1  UNL1        0.0236
     16 H           2.5484   35.4598   18.1646 H       1  UNL1        0.0236
     17 H           4.4563   36.9212   17.3843 H       1  UNL1        0.0236
     18 H           5.7969   36.2507   16.4648 H       1  UNL1        0.0236
     19 H           5.6330   35.8965   18.1899 H       1  UNL1        0.0236
     20 H           7.5630   34.8359   17.6890 H       1  UNL1        0.0236
     21 H           8.2800   33.6553   16.5840 H       1  UNL1        0.0236
     22 H           8.4577   33.4592   18.3169 H       1  UNL1        0.0236
     23 H           6.7064   32.3847   19.7072 H       1  UNL1        0.0236
     24 H           5.0409   32.3998   19.1358 H       1  UNL1        0.0236
     25 H           5.8868   33.9239   19.4588 H       1  UNL1        0.0236
     26 H           6.0987   32.0978   13.8551 H       1  UNL1        0.0236
     27 H           7.4351   32.2493   14.9893 H       1  UNL1        0.0236
     28 H           7.4599   33.1570   13.4700 H       1  UNL1        0.0236
     29 H           5.6565   34.7704   12.9898 H       1  UNL1        0.0236
     30 H           4.7965   35.5886   14.2851 H       1  UNL1        0.0236
     31 H           4.2753   33.9769   13.7582 H       1  UNL1        0.0236
@<TRIPOS>BOND
     1    29    10    1
     2    28     9    1
     3    31    10    1
     4    26     9    1
     5    10    30    1
     6    10     4    1
     7     9     4    1
     8     9    27    1
     9     4    13    1
    10     4     1    1
    11    11     2    1
    12     1     2    1
    13     1     3    1
    14    18     6    1
    15    21     7    1
    16     2     6    1
    17     2     5    1
    18     6    17    1
    19     6    19    1
    20    12     3    1
    21     7     3    1
    22     7    20    1
    23     7    22    1
    24     3     8    1
    25    15     5    1
    26     5    16    1
    27     5    14    1
    28     8    24    1
    29     8    25    1
    30     8    23    1
