@<TRIPOS>MOLECULE
2
 93 96 0 0 0
SMALL
GASTEIGER

@<TRIPOS>ATOM
      1 SI          2.6212    7.1490    4.3541 Si      1  UNL1        0.0000
      2 P           2.3324    5.2040    3.4644 P.3     1  UNL1        0.0000
      3 H           3.6567    5.1244    3.0713 H       1  UNL1        0.0000
      4 N           1.3401    7.8379    5.2807 N.pl3   1  UNL1        0.0000
      5 N           4.0371    7.3346    5.3475 N.pl3   1  UNL1        0.0000
      6 N           2.9701    8.5807    3.1288 N.pl3   1  UNL1        0.0000
      7 N           3.6223   11.5935    0.3463 N.pl3   1  UNL1        0.0000
      8 C           0.5159    8.9634    7.2300 C.2     1  UNL1        0.0000
      9 H          -0.5093    8.7817    6.9657 H       1  UNL1        0.0000
     10 H           0.6996    9.4902    8.1484 H       1  UNL1        0.0000
     11 C           1.5384    8.5290    6.4777 C.2     1  UNL1        0.0000
     12 C           2.9031    8.7748    6.8965 C.2     1  UNL1        0.0000
     13 H           2.9957    9.4613    7.7249 H       1  UNL1        0.0000
     14 C           4.0267    8.2108    6.4245 C.2     1  UNL1        0.0000
     15 C           5.3674    8.5531    7.0061 C.3     1  UNL1        0.0000
     16 H           5.2542    9.2171    7.8584 H       1  UNL1        0.0000
     17 H           5.9843    9.0461    6.2542 H       1  UNL1        0.0000
     18 H           5.8953    7.6556    7.3225 H       1  UNL1        0.0000
     19 C          -0.0033    7.6374    4.8365 C.ar    1  UNL1        0.0000
     20 C          -0.6454    8.6551    4.1220 C.ar    1  UNL1        0.0000
     21 C          -1.9239    8.4241    3.6332 C.ar    1  UNL1        0.0000
     22 H          -2.4279    9.1946    3.0705 H       1  UNL1        0.0000
     23 C          -2.5623    7.2222    3.8608 C.ar    1  UNL1        0.0000
     24 H          -3.5528    7.0513    3.4659 H       1  UNL1        0.0000
     25 C          -1.9435    6.2502    4.6212 C.ar    1  UNL1        0.0000
     26 H          -2.4733    5.3353    4.8320 H       1  UNL1        0.0000
     27 C          -0.6609    6.4343    5.1217 C.ar    1  UNL1        0.0000
     28 C          -0.0603    5.3987    6.0442 C.3     1  UNL1        0.0000
     29 H           1.0190    5.5636    6.0954 H       1  UNL1        0.0000
     30 C          -0.6430    5.5824    7.4507 C.3     1  UNL1        0.0000
     31 H          -0.4047    6.5694    7.8395 H       1  UNL1        0.0000
     32 H          -0.2291    4.8372    8.1267 H       1  UNL1        0.0000
     33 H          -1.7249    5.4681    7.4315 H       1  UNL1        0.0000
     34 C          -0.2868    3.9647    5.5704 C.3     1  UNL1        0.0000
     35 H          -1.3416    3.7033    5.5665 H       1  UNL1        0.0000
     36 H           0.2261    3.2752    6.2368 H       1  UNL1        0.0000
     37 H           0.1131    3.8314    4.5669 H       1  UNL1        0.0000
     38 C          -0.0199   10.0185    3.9262 C.3     1  UNL1        0.0000
     39 H           1.0135    9.9828    4.2798 H       1  UNL1        0.0000
     40 C          -0.0138   10.4444    2.4569 C.3     1  UNL1        0.0000
     41 H          -1.0196   10.6762    2.1176 H       1  UNL1        0.0000
     42 H           0.3804    9.6530    1.8258 H       1  UNL1        0.0000
     43 H           0.5998   11.3359    2.3282 H       1  UNL1        0.0000
     44 C          -0.7589   11.0655    4.7661 C.3     1  UNL1        0.0000
     45 H          -0.3219   12.0496    4.6053 H       1  UNL1        0.0000
     46 H          -0.6840   10.8240    5.8230 H       1  UNL1        0.0000
     47 H          -1.8104   11.1055    4.4929 H       1  UNL1        0.0000
     48 C           5.0839    6.3683    5.2898 C.ar    1  UNL1        0.0000
     49 C           6.1335    6.5255    4.3811 C.ar    1  UNL1        0.0000
     50 C           7.1323    5.5622    4.3334 C.ar    1  UNL1        0.0000
     51 H           7.9411    5.6657    3.6264 H       1  UNL1        0.0000
     52 C           7.1081    4.4740    5.1817 C.ar    1  UNL1        0.0000
     53 H           7.8943    3.7350    5.1379 H       1  UNL1        0.0000
     54 C           6.0735    4.3343    6.0850 C.ar    1  UNL1        0.0000
     55 H           6.0621    3.4814    6.7459 H       1  UNL1        0.0000
     56 C           5.0455    5.2649    6.1509 C.ar    1  UNL1        0.0000
     57 C           3.9243    5.0557    7.1403 C.3     1  UNL1        0.0000
     58 H           3.1834    5.8487    7.0124 H       1  UNL1        0.0000
     59 C           4.4390    5.1209    8.5812 C.3     1  UNL1        0.0000
     60 H           5.1871    4.3528    8.7630 H       1  UNL1        0.0000
     61 H           3.6146    4.9681    9.2740 H       1  UNL1        0.0000
     62 H           4.8834    6.0910    8.7917 H       1  UNL1        0.0000
     63 C           3.2289    3.7191    6.8785 C.3     1  UNL1        0.0000
     64 H           2.8820    3.6804    5.8477 H       1  UNL1        0.0000
     65 H           2.3746    3.6128    7.5430 H       1  UNL1        0.0000
     66 H           3.9022    2.8838    7.0529 H       1  UNL1        0.0000
     67 C           6.2056    7.7130    3.4505 C.3     1  UNL1        0.0000
     68 H           5.4083    8.4092    3.7225 H       1  UNL1        0.0000
     69 C           7.5376    8.4566    3.5829 C.3     1  UNL1        0.0000
     70 H           7.7324    8.7174    4.6210 H       1  UNL1        0.0000
     71 H           7.5132    9.3722    2.9944 H       1  UNL1        0.0000
     72 H           8.3642    7.8482    3.2265 H       1  UNL1        0.0000
     73 C           5.9890    7.2628    2.0044 C.3     1  UNL1        0.0000
     74 H           6.7960    6.6079    1.6850 H       1  UNL1        0.0000
     75 H           5.9590    8.1222    1.3364 H       1  UNL1        0.0000
     76 H           5.0529    6.7159    1.9096 H       1  UNL1        0.0000
     77 C           2.8514    8.3499    1.8202 C.3     1  UNL1        0.0000
     78 H           2.5630    7.3411    1.5544 H       1  UNL1        0.0000
     79 C           3.0636    9.3039    0.8659 C.2     1  UNL1        0.0000
     80 H           2.9438    9.0257   -0.1659 H       1  UNL1        0.0000
     81 C           3.4255   10.6166    1.2457 C.2     1  UNL1        0.0000
     82 C           3.5675   10.8288    2.6390 C.2     1  UNL1        0.0000
     83 H           3.8521   11.7902    3.0300 H       1  UNL1        0.0000
     84 C           3.3310    9.8111    3.5191 C.2     1  UNL1        0.0000
     85 H           3.4365    9.9569    4.5844 H       1  UNL1        0.0000
     86 C           3.4228   11.3381   -1.0629 C.3     1  UNL1        0.0000
     87 H           4.1230   10.5820   -1.4262 H       1  UNL1        0.0000
     88 H           3.5866   12.2528   -1.6256 H       1  UNL1        0.0000
     89 H           2.4040   10.9946   -1.2557 H       1  UNL1        0.0000
     90 C           3.9906   12.9239    0.7721 C.3     1  UNL1        0.0000
     91 H           3.2149   13.3637    1.4045 H       1  UNL1        0.0000
     92 H           4.1211   13.5613   -0.0979 H       1  UNL1        0.0000
     93 H           4.9318   12.9097    1.3270 H       1  UNL1        0.0000
@<TRIPOS>BOND
     1    88    86    1
     2    87    86    1
     3    89    86    1
     4    86     7    1
     5    80    79    1
     6    92    90    1
     7     7    90    1
     8     7    81    1
     9    90    93    1
    10    90    91    1
    11    79    81    2
    12    79    77    1
    13    81    82    1
    14    75    73    1
    15    78    77    1
    16    74    73    1
    17    77     6    1
    18    42    40    1
    19    76    73    1
    20    73    67    1
    21    41    40    1
    22    43    40    1
    23    40    38    1
    24    82    83    1
    25    82    84    2
    26    71    69    1
    27    22    21    1
    28     3     2    1
    29     6    84    1
    30     6     1    1
    31    72    69    1
    32    67    69    1
    33    67    68    1
    34    67    49    1
    35     2     1    1
    36    24    23    1
    37    84    85    1
    38    69    70    1
    39    51    50    1
    40    21    23   ar
    41    21    20   ar
    42    23    25   ar
    43    38    20    1
    44    38    39    1
    45    38    44    1
    46    20    19   ar
    47    50    49   ar
    48    50    52   ar
    49     1     4    1
    50     1     5    1
    51    49    48   ar
    52    47    44    1
    53    37    34    1
    54    45    44    1
    55    25    26    1
    56    25    27   ar
    57    44    46    1
    58    19    27   ar
    59    19     4    1
    60    27    28    1
    61    53    52    1
    62    52    54   ar
    63     4    11    1
    64    48     5    1
    65    48    56   ar
    66     5    14    1
    67    35    34    1
    68    34    28    1
    69    34    36    1
    70    64    63    1
    71    28    29    1
    72    28    30    1
    73    54    56   ar
    74    54    55    1
    75    56    57    1
    76    17    15    1
    77    14    12    2
    78    14    15    1
    79    11    12    1
    80    11     8    2
    81    63    66    1
    82    63    57    1
    83    63    65    1
    84    12    13    1
    85     9     8    1
    86    15    18    1
    87    15    16    1
    88    58    57    1
    89    57    59    1
    90     8    10    1
    91    33    30    1
    92    30    31    1
    93    30    32    1
    94    59    60    1
    95    59    62    1
    96    59    61    1
