@<TRIPOS>MOLECULE
1
 34 36 0 0 0
SMALL
GASTEIGER

@<TRIPOS>ATOM
      1 P           1.2439    4.3168    7.6002 P.3     1  UNL1       -0.0131
      2 C           3.3929    4.4073    9.3083 C.ar    1  UNL1       -0.0535
      3 C           4.2808    4.9629   10.2097 C.ar    1  UNL1       -0.0611
      4 C           4.1818    6.3056   10.5373 C.ar    1  UNL1       -0.0617
      5 C           3.1960    7.0871    9.9584 C.ar    1  UNL1       -0.0611
      6 C           2.3051    6.5330    9.0554 C.ar    1  UNL1       -0.0535
      7 C           2.3981    5.1856    8.7236 C.ar    1  UNL1       -0.0147
      8 C          -0.3356    2.4507    8.9408 C.ar    1  UNL1       -0.0535
      9 C          -1.2505    2.0373    9.8942 C.ar    1  UNL1       -0.0611
     10 C          -1.8108    2.9586   10.7621 C.ar    1  UNL1       -0.0617
     11 C          -1.4535    4.2960   10.6792 C.ar    1  UNL1       -0.0611
     12 C          -0.5393    4.7119    9.7307 C.ar    1  UNL1       -0.0535
     13 C           0.0213    3.7896    8.8500 C.ar    1  UNL1       -0.0147
     14 C          -0.9918    5.7585    6.6648 C.ar    1  UNL1       -0.0535
     15 C          -1.5792    6.7491    5.8966 C.ar    1  UNL1       -0.0611
     16 C          -0.7931    7.6626    5.2153 C.ar    1  UNL1       -0.0617
     17 C           0.5891    7.5799    5.2894 C.ar    1  UNL1       -0.0611
     18 C           1.1795    6.5893    6.0486 C.ar    1  UNL1       -0.0535
     19 C           0.3925    5.6848    6.7598 C.ar    1  UNL1       -0.0147
     20 H           3.4610    3.3574    9.0512 H       1  UNL1        0.0624
     21 H           5.0477    4.3495   10.6584 H       1  UNL1        0.0618
     22 H           4.8704    6.7445   11.2444 H       1  UNL1        0.0618
     23 H           3.1191    8.1347   10.2111 H       1  UNL1        0.0618
     24 H           1.5448    7.1541    8.6020 H       1  UNL1        0.0624
     25 H           0.1043    1.7355    8.2579 H       1  UNL1        0.0624
     26 H          -1.5259    0.9951    9.9577 H       1  UNL1        0.0618
     27 H          -2.5259    2.6371   11.5048 H       1  UNL1        0.0618
     28 H          -1.8897    5.0150   11.3573 H       1  UNL1        0.0618
     29 H          -0.2600    5.7546    9.6669 H       1  UNL1        0.0624
     30 H          -1.6067    5.0376    7.1860 H       1  UNL1        0.0624
     31 H          -2.6557    6.8031    5.8247 H       1  UNL1        0.0618
     32 H          -1.2558    8.4325    4.6158 H       1  UNL1        0.0618
     33 H           1.2038    8.2826    4.7458 H       1  UNL1        0.0618
     34 H           2.2588    6.5022    6.0955 H       1  UNL1        0.0624
@<TRIPOS>BOND
     1    32    16    1
     2    33    17    1
     3    16    17   ar
     4    16    15   ar
     5    17    18   ar
     6    31    15    1
     7    15    14   ar
     8    18    34    1
     9    18    19   ar
    10    14    19   ar
    11    14    30    1
    12    19     1    1
    13     1     7    1
    14     1    13    1
    15    25     8    1
    16    24     6    1
    17     7     6   ar
    18     7     2   ar
    19    13     8   ar
    20    13    12   ar
    21     8     9   ar
    22    20     2    1
    23     6     5   ar
    24     2     3   ar
    25    29    12    1
    26    12    11   ar
    27     9    26    1
    28     9    10   ar
    29     5    23    1
    30     5     4   ar
    31     3     4   ar
    32     3    21    1
    33     4    22    1
    34    11    10   ar
    35    11    28    1
    36    10    27    1
