@<TRIPOS>MOLECULE
1
 13 12 0 0 0
SMALL
GASTEIGER

@<TRIPOS>ATOM
      1 P           3.2965    5.1359    5.0863 P.3     1  UNL1       -0.1154
      2 C           4.9832    4.4384    4.8623 C.3     1  UNL1       -0.0447
      3 H           5.0499    3.9502    3.8920 H       1  UNL1        0.0277
      4 H           5.2120    3.7177    5.6472 H       1  UNL1        0.0277
      5 H           5.7027    5.2535    4.8889 H       1  UNL1        0.0277
      6 C           2.4054    3.5212    5.2758 C.3     1  UNL1       -0.0447
      7 H           1.3430    3.6777    5.4454 H       1  UNL1        0.0277
      8 H           2.8223    2.9649    6.1146 H       1  UNL1        0.0277
      9 H           2.5192    2.9334    4.3687 H       1  UNL1        0.0277
     10 C           3.4421    5.5709    6.8675 C.3     1  UNL1       -0.0447
     11 H           4.1262    6.4090    6.9630 H       1  UNL1        0.0277
     12 H           3.8184    4.7206    7.4362 H       1  UNL1        0.0277
     13 H           2.4746    5.8696    7.2613 H       1  UNL1        0.0277
@<TRIPOS>BOND
     1     3     2    1
     2     9     6    1
     3     2     5    1
     4     2     1    1
     5     2     4    1
     6     1     6    1
     7     1    10    1
     8     6     7    1
     9     6     8    1
    10    10    11    1
    11    10    13    1
    12    10    12    1
