@<TRIPOS>MOLECULE
1
 13 12 0 0 0
SMALL
GASTEIGER

@<TRIPOS>ATOM
      1 P           0.6211    6.8980    4.0621 P.3     1  UNL1       -0.1154
      2 C          -0.4711    5.7317    3.1395 C.3     1  UNL1       -0.0447
      3 H          -0.3627    5.8994    2.0702 H       1  UNL1        0.0277
      4 H          -1.5137    5.8757    3.4237 H       1  UNL1        0.0277
      5 H          -0.1724    4.7088    3.3637 H       1  UNL1        0.0277
      6 C           0.0500    6.4382    5.7531 C.3     1  UNL1       -0.0447
      7 H           0.4617    5.4744    6.0395 H       1  UNL1        0.0277
      8 H          -1.0389    6.3822    5.7745 H       1  UNL1        0.0277
      9 H           0.3868    7.1866    6.4631 H       1  UNL1        0.0277
     10 C          -0.3913    8.4219    3.8687 C.3     1  UNL1       -0.0447
     11 H           0.2018    9.2870    4.1537 H       1  UNL1        0.0277
     12 H          -1.2864    8.3657    4.4877 H       1  UNL1        0.0277
     13 H          -0.6836    8.5319    2.8284 H       1  UNL1        0.0277
@<TRIPOS>BOND
     1     3     2    1
     2    13    10    1
     3     2     5    1
     4     2     4    1
     5     2     1    1
     6    10     1    1
     7    10    11    1
     8    10    12    1
     9     1     6    1
    10     6     8    1
    11     6     7    1
    12     6     9    1
