@<TRIPOS>MOLECULE
1
 13 12 0 0 0
SMALL
GASTEIGER

@<TRIPOS>ATOM
      1 P           2.8479    5.5305    1.7231 P.3     1  UNL1       -0.1154
      2 C           2.0170    6.0478    0.1625 C.3     1  UNL1       -0.0447
      3 H           0.9365    6.0518    0.2841 H       1  UNL1        0.0277
      4 H           2.2804    5.3641   -0.6442 H       1  UNL1        0.0277
      5 H           2.3436    7.0519   -0.0907 H       1  UNL1        0.0277
      6 C           4.5493    5.4060    1.0451 C.3     1  UNL1       -0.0447
      7 H           4.8981    6.4085    0.8136 H       1  UNL1        0.0277
      8 H           4.5642    4.7884    0.1469 H       1  UNL1        0.0277
      9 H           5.2115    4.9799    1.7948 H       1  UNL1        0.0277
     10 C           2.4217    3.7310    1.6488 C.3     1  UNL1       -0.0447
     11 H           3.1068    3.1782    2.2886 H       1  UNL1        0.0277
     12 H           2.5181    3.3638    0.6276 H       1  UNL1        0.0277
     13 H           1.4038    3.5657    1.9944 H       1  UNL1        0.0277
@<TRIPOS>BOND
     1     4     2    1
     2     5     2    1
     3     8     6    1
     4     2     3    1
     5     2     1    1
     6    12    10    1
     7     7     6    1
     8     6     1    1
     9     6     9    1
    10    10     1    1
    11    10    13    1
    12    10    11    1
