@<TRIPOS>MOLECULE
1
 325 333 0 0 0
SMALL
GASTEIGER

@<TRIPOS>ATOM
      1 P          -2.6138    2.8497    5.5472 P.3     1  UNL1        0.0000
      2 SI         -3.2062    7.5351    6.3428 Si      1  UNL1        0.0000
      3 SI         -5.1150   10.5520    1.8296 Si      1  UNL1        0.0000
      4 SI         -6.6697    5.0782    2.6967 Si      1  UNL1        0.0000
      5 SI         -0.5937   12.6102    6.3080 Si      1  UNL1        0.0000
      6 SI          2.4558    7.7220    6.3971 Si      1  UNL1        0.0000
      7 SI         -3.9786   10.5807   11.0548 Si      1  UNL1        0.0000
      8 SI         -6.0935    5.2102   10.6372 Si      1  UNL1        0.0000
      9 SI          1.7871    2.8597    3.5700 Si      1  UNL1        0.0000
     10 SI          5.9013   -0.6407    1.9035 Si      1  UNL1        0.0000
     11 SI          0.4166   -2.0830    0.9807 Si      1  UNL1        0.0000
     12 SI          6.9009    4.8165    4.9134 Si      1  UNL1        0.0000
     13 SI          3.5416    2.6534    9.0524 Si      1  UNL1        0.0000
     14 SI         -0.7763    7.5701    1.6441 Si      1  UNL1        0.0000
     15 SI          4.3687    6.0293   -0.4001 Si      1  UNL1        0.0000
     16 SI         -1.9308    0.5687    9.7067 Si      1  UNL1        0.0000
     17 SI          1.9191   -1.7354    6.2999 Si      1  UNL1        0.0000
     18 SI          2.7100   -1.8997   12.0107 Si      1  UNL1        0.0000
     19 SI         -3.5615   -4.6102    8.0710 Si      1  UNL1        0.0000
     20 SI         -7.5176   -0.6296    9.3003 Si      1  UNL1        0.0000
     21 SI         -4.2948    2.0335   14.6785 Si      1  UNL1        0.0000
     22 SI         -1.1004    5.7788   11.6225 Si      1  UNL1        0.0000
     23 C          -2.6425    4.5698    5.8987 C.1     1  UNL1        0.0000
     24 C          -2.7170    5.7515    6.1423 C.1     1  UNL1        0.0000
     25 C          -4.3497    7.7617    4.8502 C.ar    1  UNL1        0.0000
     26 C          -4.3674    8.9072    4.0654 C.ar    1  UNL1        0.0000
     27 C          -5.1229    8.9870    2.9004 C.ar    1  UNL1        0.0000
     28 C          -5.8541    7.8645    2.5202 C.ar    1  UNL1        0.0000
     29 C          -5.8587    6.6950    3.2709 C.ar    1  UNL1        0.0000
     30 C          -5.1164    6.6747    4.4447 C.ar    1  UNL1        0.0000
     31 C          -5.1640   10.0576   -0.0149 C.3     1  UNL1        0.0000
     32 C          -3.5388   11.5793    2.1534 C.3     1  UNL1        0.0000
     33 C          -6.6525   11.6115    2.2400 C.3     1  UNL1        0.0000
     34 C          -7.5085    5.3270    0.9980 C.3     1  UNL1        0.0000
     35 C          -7.9486    4.4666    3.9700 C.3     1  UNL1        0.0000
     36 C          -5.2609    3.7976    2.5179 C.3     1  UNL1        0.0000
     37 C          -1.6224    8.5590    6.3027 C.ar    1  UNL1        0.0000
     38 C          -1.6595    9.9471    6.2952 C.ar    1  UNL1        0.0000
     39 C          -0.5036   10.7164    6.3459 C.ar    1  UNL1        0.0000
     40 C           0.7174   10.0501    6.3979 C.ar    1  UNL1        0.0000
     41 C           0.8057    8.6631    6.3981 C.ar    1  UNL1        0.0000
     42 C          -0.3813    7.9388    6.3524 C.ar    1  UNL1        0.0000
     43 C           0.6988   13.3409    7.5075 C.3     1  UNL1        0.0000
     44 C          -2.3291   13.2000    6.8450 C.3     1  UNL1        0.0000
     45 C          -0.2411   13.2066    4.5273 C.3     1  UNL1        0.0000
     46 C           3.8955    8.8801    6.8845 C.3     1  UNL1        0.0000
     47 C           2.3514    6.2859    7.6457 C.3     1  UNL1        0.0000
     48 C           2.7512    7.0302    4.6459 C.3     1  UNL1        0.0000
     49 C          -4.0080    7.7115    8.0450 C.ar    1  UNL1        0.0000
     50 C          -4.7198    6.6590    8.6097 C.ar    1  UNL1        0.0000
     51 C          -5.2264    6.7316    9.9021 C.ar    1  UNL1        0.0000
     52 C          -5.0206    7.9053   10.6192 C.ar    1  UNL1        0.0000
     53 C          -4.3155    8.9824   10.0934 C.ar    1  UNL1        0.0000
     54 C          -3.8143    8.8583    8.8036 C.ar    1  UNL1        0.0000
     55 C          -5.0243   11.9934   10.3009 C.3     1  UNL1        0.0000
     56 C          -4.4195   10.3828   12.8996 C.3     1  UNL1        0.0000
     57 C          -2.1279   11.0282   10.8792 C.3     1  UNL1        0.0000
     58 C          -6.2047    5.4041   12.5353 C.3     1  UNL1        0.0000
     59 C          -7.8513    5.0680    9.9017 C.3     1  UNL1        0.0000
     60 C          -5.0526    3.6764   10.2133 C.3     1  UNL1        0.0000
     61 C          -1.0203    2.7580    4.7830 C.1     1  UNL1        0.0000
     62 C           0.0898    2.7129    4.3057 C.1     1  UNL1        0.0000
     63 C           2.2792    1.2416    2.7237 C.ar    1  UNL1        0.0000
     64 C           3.6217    0.9036    2.6198 C.ar    1  UNL1        0.0000
     65 C           4.0420   -0.2786    2.0210 C.ar    1  UNL1        0.0000
     66 C           3.0641   -1.1379    1.5348 C.ar    1  UNL1        0.0000
     67 C           1.7061   -0.8437    1.6189 C.ar    1  UNL1        0.0000
     68 C           1.3372    0.3607    2.2065 C.ar    1  UNL1        0.0000
     69 C           6.6851    0.6336    0.7144 C.3     1  UNL1        0.0000
     70 C           6.2039   -2.4019    1.2374 C.3     1  UNL1        0.0000
     71 C           6.6893   -0.4681    3.6342 C.3     1  UNL1        0.0000
     72 C           0.7121   -3.7738    1.8224 C.3     1  UNL1        0.0000
     73 C           0.6234   -2.2753   -0.9089 C.3     1  UNL1        0.0000
     74 C          -1.3503   -1.4845    1.3749 C.3     1  UNL1        0.0000
     75 C           3.0522    3.2271    4.9299 C.ar    1  UNL1        0.0000
     76 C           4.2653    3.8033    4.5753 C.ar    1  UNL1        0.0000
     77 C           5.2732    4.0412    5.5019 C.ar    1  UNL1        0.0000
     78 C           5.0293    3.6843    6.8224 C.ar    1  UNL1        0.0000
     79 C           3.8243    3.1207    7.2309 C.ar    1  UNL1        0.0000
     80 C           2.8489    2.8961    6.2644 C.ar    1  UNL1        0.0000
     81 C           8.0265    5.2284    6.3956 C.3     1  UNL1        0.0000
     82 C           7.7814    3.5671    3.7639 C.3     1  UNL1        0.0000
     83 C           6.5248    6.4129    3.9342 C.3     1  UNL1        0.0000
     84 C           4.3672    3.9465   10.1951 C.3     1  UNL1        0.0000
     85 C           4.3557    0.9552    9.3642 C.3     1  UNL1        0.0000
     86 C           1.6780    2.6013    9.4247 C.3     1  UNL1        0.0000
     87 C           1.7323    4.3093    2.3561 C.ar    1  UNL1        0.0000
     88 C           0.6933    5.2310    2.3801 C.ar    1  UNL1        0.0000
     89 C           0.6908    6.3610    1.5687 C.ar    1  UNL1        0.0000
     90 C           1.7956    6.5697    0.7520 C.ar    1  UNL1        0.0000
     91 C           2.8597    5.6741    0.6931 C.ar    1  UNL1        0.0000
     92 C           2.7923    4.5359    1.4863 C.ar    1  UNL1        0.0000
     93 C          -1.0556    8.3499   -0.0800 C.3     1  UNL1        0.0000
     94 C          -0.4050    8.9513    2.9046 C.3     1  UNL1        0.0000
     95 C          -2.3254    6.5808    2.1402 C.3     1  UNL1        0.0000
     96 C           5.7331    4.7287   -0.0978 C.3     1  UNL1        0.0000
     97 C           5.0507    7.7598    0.0361 C.3     1  UNL1        0.0000
     98 C           3.8480    5.9914   -2.2371 C.3     1  UNL1        0.0000
     99 C          -2.1885    2.1850    7.1196 C.1     1  UNL1        0.0000
    100 C          -2.0222    1.6100    8.1700 C.1     1  UNL1        0.0000
    101 C          -0.2781   -0.3365    9.5654 C.ar    1  UNL1        0.0000
    102 C           0.1714   -0.6595    8.2897 C.ar    1  UNL1        0.0000
    103 C           1.3499   -1.3594    8.0737 C.ar    1  UNL1        0.0000
    104 C           2.0863   -1.7362    9.1936 C.ar    1  UNL1        0.0000
    105 C           1.6868   -1.4198   10.4874 C.ar    1  UNL1        0.0000
    106 C           0.4945   -0.7197   10.6503 C.ar    1  UNL1        0.0000
    107 C           2.2586   -3.6099    6.1298 C.3     1  UNL1        0.0000
    108 C           0.5314   -1.2431    5.0922 C.3     1  UNL1        0.0000
    109 C           3.4993   -0.7536    5.8835 C.3     1  UNL1        0.0000
    110 C           4.4284   -2.5488   11.4961 C.3     1  UNL1        0.0000
    111 C           1.7843   -3.2660   12.9758 C.3     1  UNL1        0.0000
    112 C           2.9115   -0.3681   13.1348 C.3     1  UNL1        0.0000
    113 C          -3.3329   -0.6747    9.4425 C.ar    1  UNL1        0.0000
    114 C          -3.0358   -1.9670    9.0286 C.ar    1  UNL1        0.0000
    115 C          -4.0284   -2.8765    8.6841 C.ar    1  UNL1        0.0000
    116 C          -5.3511   -2.4552    8.7839 C.ar    1  UNL1        0.0000
    117 C          -5.6968   -1.1686    9.1880 C.ar    1  UNL1        0.0000
    118 C          -4.6671   -0.2903    9.5066 C.ar    1  UNL1        0.0000
    119 C          -3.6981   -5.8548    9.5140 C.3     1  UNL1        0.0000
    120 C          -4.7380   -5.1467    6.6641 C.3     1  UNL1        0.0000
    121 C          -1.7725   -4.5896    7.4037 C.3     1  UNL1        0.0000
    122 C          -8.1883   -1.1890   11.0021 C.3     1  UNL1        0.0000
    123 C          -8.5220   -1.5090    7.9305 C.3     1  UNL1        0.0000
    124 C          -7.7033    1.2561    9.1304 C.3     1  UNL1        0.0000
    125 C          -2.1368    1.7749   11.1353 C.ar    1  UNL1        0.0000
    126 C          -2.9054    1.4986   12.2554 C.ar    1  UNL1        0.0000
    127 C          -3.1519    2.4634   13.2275 C.ar    1  UNL1        0.0000
    128 C          -2.5927    3.7250   13.0525 C.ar    1  UNL1        0.0000
    129 C          -1.8118    4.0451   11.9461 C.ar    1  UNL1        0.0000
    130 C          -1.6005    3.0500   11.0007 C.ar    1  UNL1        0.0000
    131 C          -5.9483    1.3943   13.9634 C.3     1  UNL1        0.0000
    132 C          -4.6070    3.5464   15.7949 C.3     1  UNL1        0.0000
    133 C          -3.4892    0.6453   15.7183 C.3     1  UNL1        0.0000
    134 C          -2.0621    7.0744   12.6377 C.3     1  UNL1        0.0000
    135 C           0.7456    5.7880   12.1320 C.3     1  UNL1        0.0000
    136 C          -1.2472    6.1797    9.7651 C.3     1  UNL1        0.0000
    137 H          -3.7622    9.7537    4.3539 H       1  UNL1        0.0000
    138 H          -6.4205    7.8989    1.6010 H       1  UNL1        0.0000
    139 H          -5.1097    5.7759    5.0420 H       1  UNL1        0.0000
    140 H          -4.4222    9.2979   -0.2429 H       1  UNL1        0.0000
    141 H          -4.9704   10.9115   -0.6570 H       1  UNL1        0.0000
    142 H          -6.1351    9.6588   -0.2907 H       1  UNL1        0.0000
    143 H          -2.6407   11.0016    1.9576 H       1  UNL1        0.0000
    144 H          -3.5105   12.4580    1.5159 H       1  UNL1        0.0000
    145 H          -3.4927   11.9252    3.1816 H       1  UNL1        0.0000
    146 H          -7.5689   11.0522    2.0776 H       1  UNL1        0.0000
    147 H          -6.6461   11.9308    3.2778 H       1  UNL1        0.0000
    148 H          -6.6967   12.5028    1.6212 H       1  UNL1        0.0000
    149 H          -6.7948    5.6459    0.2450 H       1  UNL1        0.0000
    150 H          -7.9648    4.4065    0.6473 H       1  UNL1        0.0000
    151 H          -8.2913    6.0767    1.0515 H       1  UNL1        0.0000
    152 H          -8.6802    5.2328    4.2087 H       1  UNL1        0.0000
    153 H          -8.4897    3.5978    3.6053 H       1  UNL1        0.0000
    154 H          -7.4536    4.1852    4.8948 H       1  UNL1        0.0000
    155 H          -4.3149    4.2826    2.2954 H       1  UNL1        0.0000
    156 H          -5.1346    3.2465    3.4617 H       1  UNL1        0.0000
    157 H          -5.4560    3.0743    1.7315 H       1  UNL1        0.0000
    158 H          -2.6160   10.4487    6.2513 H       1  UNL1        0.0000
    159 H           1.6270   10.6312    6.4381 H       1  UNL1        0.0000
    160 H          -0.3393    6.8588    6.3514 H       1  UNL1        0.0000
    161 H           0.5681   12.9556    8.5142 H       1  UNL1        0.0000
    162 H           1.7098   13.1012    7.1941 H       1  UNL1        0.0000
    163 H           0.6211   14.4227    7.5564 H       1  UNL1        0.0000
    164 H          -3.0935   12.8950    6.1367 H       1  UNL1        0.0000
    165 H          -2.6027   12.8034    7.8184 H       1  UNL1        0.0000
    166 H          -2.3667   14.2830    6.9126 H       1  UNL1        0.0000
    167 H          -0.9654   12.8049    3.8250 H       1  UNL1        0.0000
    168 H           0.7428   12.8872    4.1968 H       1  UNL1        0.0000
    169 H          -0.2777   14.2896    4.4559 H       1  UNL1        0.0000
    170 H           4.0566    9.6534    6.1398 H       1  UNL1        0.0000
    171 H           4.8207    8.3192    6.9768 H       1  UNL1        0.0000
    172 H           3.7136    9.3702    7.8359 H       1  UNL1        0.0000
    173 H           3.3115    5.7897    7.7435 H       1  UNL1        0.0000
    174 H           1.6401    5.5365    7.3135 H       1  UNL1        0.0000
    175 H           2.0427    6.6227    8.6309 H       1  UNL1        0.0000
    176 H           3.6023    6.3577    4.6316 H       1  UNL1        0.0000
    177 H           1.8888    6.4665    4.3035 H       1  UNL1        0.0000
    178 H           2.9326    7.8154    3.9179 H       1  UNL1        0.0000
    179 H          -4.8647    5.7549    8.0370 H       1  UNL1        0.0000
    180 H          -5.4141    7.9804   11.6225 H       1  UNL1        0.0000
    181 H          -3.2422    9.6743    8.3867 H       1  UNL1        0.0000
    182 H          -6.0873   11.8006   10.4106 H       1  UNL1        0.0000
    183 H          -4.8115   12.9452   10.7786 H       1  UNL1        0.0000
    184 H          -4.8232   12.1061    9.2397 H       1  UNL1        0.0000
    185 H          -3.8803    9.5563   13.3510 H       1  UNL1        0.0000
    186 H          -5.4808   10.1990   13.0348 H       1  UNL1        0.0000
    187 H          -4.1717   11.2805   13.4577 H       1  UNL1        0.0000
    188 H          -1.4907   10.2518   11.2916 H       1  UNL1        0.0000
    189 H          -1.8938   11.9550   11.3945 H       1  UNL1        0.0000
    190 H          -1.8478   11.1532    9.8372 H       1  UNL1        0.0000
    191 H          -6.7887    6.2732   12.8217 H       1  UNL1        0.0000
    192 H          -6.6742    4.5364   12.9880 H       1  UNL1        0.0000
    193 H          -5.2157    5.5044   12.9712 H       1  UNL1        0.0000
    194 H          -8.4232    4.2798   10.3821 H       1  UNL1        0.0000
    195 H          -8.4103    5.9933   10.0079 H       1  UNL1        0.0000
    196 H          -7.7963    4.8342    8.8431 H       1  UNL1        0.0000
    197 H          -3.9928    3.8772   10.3323 H       1  UNL1        0.0000
    198 H          -5.2951    2.8357   10.8566 H       1  UNL1        0.0000
    199 H          -5.2101    3.3710    9.1841 H       1  UNL1        0.0000
    200 H           4.3650    1.5735    3.0295 H       1  UNL1        0.0000
    201 H           3.3675   -2.0696    1.0793 H       1  UNL1        0.0000
    202 H           0.2901    0.6161    2.2814 H       1  UNL1        0.0000
    203 H           7.7584    0.4916    0.6320 H       1  UNL1        0.0000
    204 H           6.5158    1.6486    1.0605 H       1  UNL1        0.0000
    205 H           6.2652    0.5556   -0.2843 H       1  UNL1        0.0000
    206 H           7.2653   -2.6277    1.2101 H       1  UNL1        0.0000
    207 H           5.7269   -3.1507    1.8623 H       1  UNL1        0.0000
    208 H           5.8208   -2.5185    0.2284 H       1  UNL1        0.0000
    209 H           7.7735   -0.4807    3.5740 H       1  UNL1        0.0000
    210 H           6.3873   -1.2786    4.2906 H       1  UNL1        0.0000
    211 H           6.3963    0.4621    4.1116 H       1  UNL1        0.0000
    212 H           0.0340   -4.5285    1.4352 H       1  UNL1        0.0000
    213 H           1.7243   -4.1272    1.6509 H       1  UNL1        0.0000
    214 H           0.5638   -3.7181    2.8966 H       1  UNL1        0.0000
    215 H          -0.0806   -2.9969   -1.3122 H       1  UNL1        0.0000
    216 H           1.6227   -2.6152   -1.1630 H       1  UNL1        0.0000
    217 H           0.4595   -1.3326   -1.4224 H       1  UNL1        0.0000
    218 H          -2.0875   -2.2118    1.0488 H       1  UNL1        0.0000
    219 H          -1.5734   -0.5488    0.8722 H       1  UNL1        0.0000
    220 H          -1.4923   -1.3281    2.4392 H       1  UNL1        0.0000
    221 H           4.4318    4.0864    3.5456 H       1  UNL1        0.0000
    222 H           5.7989    3.8582    7.5601 H       1  UNL1        0.0000
    223 H           1.9038    2.4599    6.5570 H       1  UNL1        0.0000
    224 H           8.3147    4.3336    6.9383 H       1  UNL1        0.0000
    225 H           8.9380    5.7172    6.0665 H       1  UNL1        0.0000
    226 H           7.5317    5.8952    7.0949 H       1  UNL1        0.0000
    227 H           7.1426    3.2767    2.9350 H       1  UNL1        0.0000
    228 H           8.0529    2.6596    4.2952 H       1  UNL1        0.0000
    229 H           8.6909    3.9862    3.3439 H       1  UNL1        0.0000
    230 H           7.4272    6.8231    3.4904 H       1  UNL1        0.0000
    231 H           5.8195    6.2275    3.1291 H       1  UNL1        0.0000
    232 H           6.0936    7.1784    4.5725 H       1  UNL1        0.0000
    233 H           4.1692    3.7172   11.2380 H       1  UNL1        0.0000
    234 H           3.9948    4.9482   10.0053 H       1  UNL1        0.0000
    235 H           5.4452    3.9667   10.0685 H       1  UNL1        0.0000
    236 H           5.3816    0.9346    9.0076 H       1  UNL1        0.0000
    237 H           4.3675    0.7129   10.4222 H       1  UNL1        0.0000
    238 H           3.8099    0.1668    8.8565 H       1  UNL1        0.0000
    239 H           1.1784    1.8364    8.8398 H       1  UNL1        0.0000
    240 H           1.4908    2.3780   10.4703 H       1  UNL1        0.0000
    241 H           1.2079    3.5532    9.1982 H       1  UNL1        0.0000
    242 H          -0.1376    5.0606    3.0495 H       1  UNL1        0.0000
    243 H           1.8283    7.4571    0.1362 H       1  UNL1        0.0000
    244 H           3.5867    3.8054    1.4244 H       1  UNL1        0.0000
    245 H          -1.2264    7.5938   -0.8403 H       1  UNL1        0.0000
    246 H          -1.9206    9.0062   -0.0671 H       1  UNL1        0.0000
    247 H          -0.2036    8.9446   -0.3947 H       1  UNL1        0.0000
    248 H           0.0293    8.5464    3.8124 H       1  UNL1        0.0000
    249 H          -1.3124    9.4744    3.1890 H       1  UNL1        0.0000
    250 H           0.2909    9.6845    2.5079 H       1  UNL1        0.0000
    251 H          -2.2941    6.2907    3.1862 H       1  UNL1        0.0000
    252 H          -3.2289    7.1638    1.9974 H       1  UNL1        0.0000
    253 H          -2.4187    5.6760    1.5464 H       1  UNL1        0.0000
    254 H           6.6041    4.9306   -0.7137 H       1  UNL1        0.0000
    255 H           5.3895    3.7275   -0.3402 H       1  UNL1        0.0000
    256 H           6.0618    4.7281    0.9374 H       1  UNL1        0.0000
    257 H           5.9294    7.9985   -0.5555 H       1  UNL1        0.0000
    258 H           5.3307    7.8259    1.0831 H       1  UNL1        0.0000
    259 H           4.3107    8.5315   -0.1517 H       1  UNL1        0.0000
    260 H           3.0519    6.7032   -2.4324 H       1  UNL1        0.0000
    261 H           4.6793    6.2406   -2.8895 H       1  UNL1        0.0000
    262 H           3.4852    5.0094   -2.5256 H       1  UNL1        0.0000
    263 H          -0.4204   -0.3470    7.4423 H       1  UNL1        0.0000
    264 H           3.0024   -2.2913    9.0505 H       1  UNL1        0.0000
    265 H           0.1627   -0.4645   11.6476 H       1  UNL1        0.0000
    266 H           1.3717   -4.1983    6.3448 H       1  UNL1        0.0000
    267 H           3.0391   -3.9365    6.8100 H       1  UNL1        0.0000
    268 H           2.5808   -3.8536    5.1218 H       1  UNL1        0.0000
    269 H           0.3554   -0.1716    5.1150 H       1  UNL1        0.0000
    270 H          -0.4039   -1.7441    5.3238 H       1  UNL1        0.0000
    271 H           0.8034   -1.5007    4.0745 H       1  UNL1        0.0000
    272 H           4.3464   -1.0823    6.4778 H       1  UNL1        0.0000
    273 H           3.7602   -0.8776    4.8367 H       1  UNL1        0.0000
    274 H           3.3669    0.3096    6.0616 H       1  UNL1        0.0000
    275 H           5.0437   -2.7490   12.3679 H       1  UNL1        0.0000
    276 H           4.3504   -3.4750   10.9351 H       1  UNL1        0.0000
    277 H           4.9586   -1.8313   10.8781 H       1  UNL1        0.0000
    278 H           1.6624   -4.1626   12.3751 H       1  UNL1        0.0000
    279 H           2.3196   -3.5454   13.8784 H       1  UNL1        0.0000
    280 H           0.7935   -2.9343   13.2711 H       1  UNL1        0.0000
    281 H           3.3486    0.4684   12.5979 H       1  UNL1        0.0000
    282 H           1.9532   -0.0374   13.5231 H       1  UNL1        0.0000
    283 H           3.5507   -0.5850   13.9853 H       1  UNL1        0.0000
    284 H          -2.0003   -2.2682    8.9614 H       1  UNL1        0.0000
    285 H          -6.1389   -3.1509    8.5302 H       1  UNL1        0.0000
    286 H          -4.9058    0.7205    9.8003 H       1  UNL1        0.0000
    287 H          -3.0348   -5.5838   10.3299 H       1  UNL1        0.0000
    288 H          -3.4361   -6.8594    9.1961 H       1  UNL1        0.0000
    289 H          -4.7080   -5.8885    9.9115 H       1  UNL1        0.0000
    290 H          -5.7719   -5.1650    6.9941 H       1  UNL1        0.0000
    291 H          -4.6771   -4.4745    5.8140 H       1  UNL1        0.0000
    292 H          -4.4929   -6.1444    6.3127 H       1  UNL1        0.0000
    293 H          -1.6301   -3.8057    6.6660 H       1  UNL1        0.0000
    294 H          -1.0532   -4.4209    8.1993 H       1  UNL1        0.0000
    295 H          -1.5210   -5.5348    6.9323 H       1  UNL1        0.0000
    296 H          -9.2452   -0.9610   11.1016 H       1  UNL1        0.0000
    297 H          -7.6680   -0.6888   11.8134 H       1  UNL1        0.0000
    298 H          -8.0676   -2.2587   11.1461 H       1  UNL1        0.0000
    299 H          -9.5541   -1.1722    7.9379 H       1  UNL1        0.0000
    300 H          -8.1202   -1.3091    6.9419 H       1  UNL1        0.0000
    301 H          -8.5341   -2.5856    8.0703 H       1  UNL1        0.0000
    302 H          -7.1087    1.6655    8.3193 H       1  UNL1        0.0000
    303 H          -7.3966    1.7643   10.0389 H       1  UNL1        0.0000
    304 H          -8.7378    1.5275    8.9410 H       1  UNL1        0.0000
    305 H          -3.3421    0.5147   12.3646 H       1  UNL1        0.0000
    306 H          -2.7845    4.4863   13.7939 H       1  UNL1        0.0000
    307 H          -1.0276    3.2796   10.1159 H       1  UNL1        0.0000
    308 H          -6.4146    2.1365   13.3222 H       1  UNL1        0.0000
    309 H          -6.6547    1.1466   14.7501 H       1  UNL1        0.0000
    310 H          -5.7951    0.5002   13.3661 H       1  UNL1        0.0000
    311 H          -3.6816    3.9246   16.2185 H       1  UNL1        0.0000
    312 H          -5.0772    4.3562   15.2470 H       1  UNL1        0.0000
    313 H          -5.2614    3.2881   16.6218 H       1  UNL1        0.0000
    314 H          -2.5464    0.9690   16.1491 H       1  UNL1        0.0000
    315 H          -4.1352    0.3381   16.5353 H       1  UNL1        0.0000
    316 H          -3.2869   -0.2329   15.1128 H       1  UNL1        0.0000
    317 H          -1.6731    8.0712   12.4555 H       1  UNL1        0.0000
    318 H          -3.1104    7.0799   12.3569 H       1  UNL1        0.0000
    319 H          -1.9970    6.8891   13.7055 H       1  UNL1        0.0000
    320 H           1.1994    6.7558   11.9394 H       1  UNL1        0.0000
    321 H           1.3091    5.0447   11.5759 H       1  UNL1        0.0000
    322 H           0.8714    5.5714   13.1888 H       1  UNL1        0.0000
    323 H          -0.5371    5.6115    9.1729 H       1  UNL1        0.0000
    324 H          -1.0641    7.2318    9.5681 H       1  UNL1        0.0000
    325 H          -2.2399    5.9498    9.3912 H       1  UNL1        0.0000
@<TRIPOS>BOND
     1   261    98    1
     2   262    98    1
     3   260    98    1
     4    98    15    1
     5   217    73    1
     6   215    73    1
     7   216    73    1
     8    73    11    1
     9   245    93    1
    10   254    96    1
    11   141    31    1
    12   257    97    1
    13    15    96    1
    14    15    97    1
    15    15    91    1
    16   247    93    1
    17   255    96    1
    18   142    31    1
    19   205    69    1
    20   140    31    1
    21   259    97    1
    22    96   256    1
    23    93   246    1
    24    93    14    1
    25    31     3    1
    26    97   258    1
    27   243    90    1
    28   208    70    1
    29   149    34    1
    30   203    69    1
    31   150    34    1
    32    91    90   ar
    33    91    92   ar
    34    69   204    1
    35    69    10    1
    36    90    89   ar
    37   219    74    1
    38    11    74    1
    39    11    67    1
    40    11    72    1
    41    34   151    1
    42    34     4    1
    43   218    74    1
    44   201    66    1
    45   206    70    1
    46    70   207    1
    47    70    10    1
    48    74   220    1
    49   244    92    1
    50   212    72    1
    51    92    87   ar
    52   144    32    1
    53    66    67   ar
    54    66    65   ar
    55   253    95    1
    56    89    14    1
    57    89    88   ar
    58   138    28    1
    59    67    68   ar
    60   148    33    1
    61    14    95    1
    62    14    94    1
    63   213    72    1
    64   157    36    1
    65    72   214    1
    66     3    32    1
    67     3    33    1
    68     3    27    1
    69    10    65    1
    70    10    71    1
    71   143    32    1
    72   252    95    1
    73    65    64   ar
    74   146    33    1
    75    95   251    1
    76    32   145    1
    77    68   202    1
    78    68    63   ar
    79    33   147    1
    80   155    36    1
    81    87    88   ar
    82    87     9    1
    83    88   242    1
    84   250    94    1
    85    36     4    1
    86    36   156    1
    87    28    27   ar
    88    28    29   ar
    89    64    63   ar
    90    64   200    1
    91     4    29    1
    92     4    35    1
    93    63     9    1
    94    27    26   ar
    95    94   249    1
    96    94   248    1
    97   227    82    1
    98   231    83    1
    99    29    30   ar
   100   229    82    1
   101   230    83    1
   102   221    76    1
   103     9    62    1
   104     9    75    1
   105   209    71    1
   106   153    35    1
   107    71   211    1
   108    71   210    1
   109    82   228    1
   110    82    12    1
   111   167    45    1
   112   178    48    1
   113    83   232    1
   114    83    12    1
   115    35   152    1
   116    35   154    1
   117    26   137    1
   118    26    25   ar
   119   271   108    1
   120   168    45    1
   121   177    48    1
   122    62    61    3
   123    30    25   ar
   124    30   139    1
   125   169    45    1
   126    45     5    1
   127    76    75   ar
   128    76    77   ar
   129   176    48    1
   130    48     6    1
   131    61     1    1
   132   273   109    1
   133    25     2    1
   134    12    77    1
   135    12    81    1
   136    75    80   ar
   137   108   269    1
   138   108   270    1
   139   108    17    1
   140   268   107    1
   141    77    78   ar
   142     1    23    1
   143     1    99    1
   144   291   120    1
   145   109   274    1
   146   109    17    1
   147   109   272    1
   148    23    24    3
   149   225    81    1
   150   107    17    1
   151   107   266    1
   152   107   267    1
   153   164    44    1
   154   170    46    1
   155    24     2    1
   156   158    38    1
   157    80   223    1
   158    80    79   ar
   159    38    37   ar
   160    38    39   ar
   161    17   103    1
   162    37     2    1
   163    37    42   ar
   164     5    39    1
   165     5    44    1
   166     5    43    1
   167   292   120    1
   168     2    49    1
   169    39    40   ar
   170   160    42    1
   171    42    41   ar
   172    81   224    1
   173    81   226    1
   174     6    41    1
   175     6    46    1
   176     6    47    1
   177    40    41   ar
   178    40   159    1
   179   120   290    1
   180   120    19    1
   181   293   121    1
   182    78    79   ar
   183    78   222    1
   184    44   166    1
   185    44   165    1
   186    46   171    1
   187    46   172    1
   188   295   121    1
   189   300   123    1
   190    99   100    3
   191   162    43    1
   192    79    13    1
   193   174    47    1
   194   121    19    1
   195   121   294    1
   196   263   102    1
   197    43   163    1
   198    43   161    1
   199    47   173    1
   200    47   175    1
   201   123   299    1
   202   123   301    1
   203   123    20    1
   204   179    50    1
   205    49    50   ar
   206    49    54   ar
   207    19   115    1
   208    19   119    1
   209   103   102   ar
   210   103   104   ar
   211   100    16    1
   212   102   101   ar
   213   302   124    1
   214   181    54    1
   215   285   116    1
   216    50    51   ar
   217   115   116   ar
   218   115   114   ar
   219   116   117   ar
   220    54    53   ar
   221   239    86    1
   222   196    59    1
   223   238    85    1
   224   304   124    1
   225   284   114    1
   226   236    85    1
   227   114   113   ar
   228   264   104    1
   229    13    85    1
   230    13    86    1
   231    13    84    1
   232   124    20    1
   233   124   303    1
   234   323   136    1
   235   199    60    1
   236   117    20    1
   237   117   118   ar
   238   104   105   ar
   239   288   119    1
   240   241    86    1
   241   184    55    1
   242    20   122    1
   243    85   237    1
   244   325   136    1
   245    86   240    1
   246   113   118   ar
   247   113    16    1
   248   118   286    1
   249   119   289    1
   250   119   287    1
   251   101    16    1
   252   101   106   ar
   253   324   136    1
   254    16   125    1
   255   136    22    1
   256   190    57    1
   257    59   195    1
   258    59   194    1
   259    59     8    1
   260    51    52   ar
   261    51     8    1
   262   234    84    1
   263   235    84    1
   264    53    52   ar
   265    53     7    1
   266   307   130    1
   267    84   233    1
   268    60   197    1
   269    60     8    1
   270    60   198    1
   271    55   182    1
   272    55   183    1
   273    55     7    1
   274   105   106   ar
   275   105    18    1
   276    52   180    1
   277     8    58    1
   278   106   265    1
   279   277   110    1
   280    57     7    1
   281    57   188    1
   282    57   189    1
   283   276   110    1
   284   130   125   ar
   285   130   129   ar
   286   122   296    1
   287   122   298    1
   288   122   297    1
   289     7    56    1
   290   125   126   ar
   291   110    18    1
   292   110   275    1
   293   321   135    1
   294    22   129    1
   295    22   135    1
   296    22   134    1
   297   320   135    1
   298   129   128   ar
   299    18   111    1
   300    18   112    1
   301   135   322    1
   302   126   305    1
   303   126   127   ar
   304   318   134    1
   305   278   111    1
   306   317   134    1
   307    58   191    1
   308    58   193    1
   309    58   192    1
   310   281   112    1
   311   134   319    1
   312    56   186    1
   313    56   185    1
   314    56   187    1
   315   111   280    1
   316   111   279    1
   317   128   127   ar
   318   128   306    1
   319   112   282    1
   320   112   283    1
   321   127    21    1
   322   308   131    1
   323   310   131    1
   324   131    21    1
   325   131   309    1
   326    21   133    1
   327    21   132    1
   328   316   133    1
   329   312   132    1
   330   133   314    1
   331   133   315    1
   332   132   311    1
   333   132   313    1
