@<TRIPOS>MOLECULE
1
 34 36 0 0 0
SMALL
GASTEIGER

@<TRIPOS>ATOM
      1 P          -2.6244    1.0575    8.8007 P.3     1  UNL1       -0.0131
      2 C          -3.3441   -0.5074    9.4276 C.ar    1  UNL1       -0.0147
      3 C          -2.7652   -1.7405    9.1322 C.ar    1  UNL1       -0.0535
      4 C          -3.3337   -2.9055    9.6110 C.ar    1  UNL1       -0.0611
      5 C          -4.4851   -2.8526   10.3820 C.ar    1  UNL1       -0.0617
      6 C          -5.0720   -1.6315   10.6658 C.ar    1  UNL1       -0.0611
      7 C          -4.5040   -0.4635   10.1881 C.ar    1  UNL1       -0.0535
      8 C          -0.9311    0.9939    9.4925 C.ar    1  UNL1       -0.0147
      9 C          -0.0730    2.0228    9.1080 C.ar    1  UNL1       -0.0535
     10 C           1.2107    2.0964    9.6135 C.ar    1  UNL1       -0.0611
     11 C           1.6462    1.1527   10.5311 C.ar    1  UNL1       -0.0617
     12 C           0.7894    0.1459   10.9412 C.ar    1  UNL1       -0.0611
     13 C          -0.4951    0.0648   10.4289 C.ar    1  UNL1       -0.0535
     14 C          -2.3446    0.4793    7.0867 C.ar    1  UNL1       -0.0147
     15 C          -3.4689   -0.0144    6.4265 C.ar    1  UNL1       -0.0535
     16 C          -3.3750   -0.4721    5.1276 C.ar    1  UNL1       -0.0611
     17 C          -2.1567   -0.4325    4.4665 C.ar    1  UNL1       -0.0617
     18 C          -1.0381    0.0628    5.1133 C.ar    1  UNL1       -0.0611
     19 C          -1.1278    0.5172    6.4188 C.ar    1  UNL1       -0.0535
     20 H          -1.8723   -1.7804    8.5220 H       1  UNL1        0.0624
     21 H          -2.8807   -3.8591    9.3809 H       1  UNL1        0.0618
     22 H          -4.9262   -3.7657   10.7541 H       1  UNL1        0.0618
     23 H          -5.9747   -1.5872   11.2568 H       1  UNL1        0.0618
     24 H          -4.9603    0.4956   10.3888 H       1  UNL1        0.0624
     25 H          -0.4384    2.7704    8.4184 H       1  UNL1        0.0624
     26 H           1.8705    2.8937    9.3020 H       1  UNL1        0.0618
     27 H           2.6470    1.2098   10.9334 H       1  UNL1        0.0618
     28 H           1.1206   -0.5807   11.6693 H       1  UNL1        0.0618
     29 H          -1.1572   -0.7195   10.7663 H       1  UNL1        0.0624
     30 H          -4.4166   -0.0320    6.9476 H       1  UNL1        0.0624
     31 H          -4.2506   -0.8561    4.6253 H       1  UNL1        0.0618
     32 H          -2.0807   -0.7869    3.4493 H       1  UNL1        0.0618
     33 H          -0.0872    0.0937    4.6008 H       1  UNL1        0.0618
     34 H          -0.2440    0.8901    6.9157 H       1  UNL1        0.0624
@<TRIPOS>BOND
     1    32    17    1
     2    17    18   ar
     3    17    16   ar
     4    33    18    1
     5    31    16    1
     6    18    19   ar
     7    16    15   ar
     8    19    34    1
     9    19    14   ar
    10    15    30    1
    11    15    14   ar
    12    14     1    1
    13    25     9    1
    14    20     3    1
    15     1     2    1
    16     1     8    1
    17     9     8   ar
    18     9    10   ar
    19     3     2   ar
    20     3     4   ar
    21    26    10    1
    22    21     4    1
    23     2     7   ar
    24     8    13   ar
    25     4     5   ar
    26    10    11   ar
    27     7    24    1
    28     7     6   ar
    29     5     6   ar
    30     5    22    1
    31    13    29    1
    32    13    12   ar
    33    11    27    1
    34    11    12   ar
    35     6    23    1
    36    12    28    1
