@<TRIPOS>MOLECULE
1
 34 36 0 0 0
SMALL
GASTEIGER

@<TRIPOS>ATOM
      1 P           2.4007    3.7868    0.2432 P.3     1  UNL1       -0.0131
      2 C           2.0987    2.7826   -1.2568 C.ar    1  UNL1       -0.0147
      3 C           1.0211    3.1942   -2.0379 C.ar    1  UNL1       -0.0535
      4 C           0.6604    2.4920   -3.1712 C.ar    1  UNL1       -0.0611
      5 C           1.3622    1.3495   -3.5246 C.ar    1  UNL1       -0.0617
      6 C           2.4159    0.9179   -2.7372 C.ar    1  UNL1       -0.0611
      7 C           2.7856    1.6273   -1.6059 C.ar    1  UNL1       -0.0535
      8 C           3.2482    5.2445   -0.4729 C.ar    1  UNL1       -0.0147
      9 C           3.2009    5.6143   -1.8106 C.ar    1  UNL1       -0.0535
     10 C           3.8685    6.7482   -2.2427 C.ar    1  UNL1       -0.0611
     11 C           4.5906    7.5176   -1.3475 C.ar    1  UNL1       -0.0617
     12 C           4.6488    7.1499   -0.0118 C.ar    1  UNL1       -0.0611
     13 C           3.9792    6.0237    0.4228 C.ar    1  UNL1       -0.0535
     14 C           3.9133    3.0060    0.9251 C.ar    1  UNL1       -0.0147
     15 C           5.0839    2.9203    0.1729 C.ar    1  UNL1       -0.0535
     16 C           6.2142    2.3366    0.7123 C.ar    1  UNL1       -0.0611
     17 C           6.1915    1.8412    2.0073 C.ar    1  UNL1       -0.0617
     18 C           5.0366    1.9379    2.7638 C.ar    1  UNL1       -0.0611
     19 C           3.9024    2.5188    2.2241 C.ar    1  UNL1       -0.0535
     20 H           0.4645    4.0676   -1.7267 H       1  UNL1        0.0624
     21 H          -0.1721    2.8271   -3.7728 H       1  UNL1        0.0618
     22 H           1.0809    0.7914   -4.4054 H       1  UNL1        0.0618
     23 H           2.9534    0.0187   -3.0025 H       1  UNL1        0.0618
     24 H           3.6029    1.2732   -0.9946 H       1  UNL1        0.0624
     25 H           2.6539    5.0129   -2.5223 H       1  UNL1        0.0624
     26 H           3.8253    7.0292   -3.2851 H       1  UNL1        0.0618
     27 H           5.1098    8.4008   -1.6891 H       1  UNL1        0.0618
     28 H           5.2144    7.7461    0.6889 H       1  UNL1        0.0618
     29 H           4.0137    5.7341    1.4638 H       1  UNL1        0.0624
     30 H           5.1053    3.3196   -0.8327 H       1  UNL1        0.0624
     31 H           7.1181    2.2699    0.1241 H       1  UNL1        0.0618
     32 H           7.0778    1.3873    2.4259 H       1  UNL1        0.0618
     33 H           5.0182    1.5638    3.7766 H       1  UNL1        0.0618
     34 H           2.9987    2.6115    2.8092 H       1  UNL1        0.0624
@<TRIPOS>BOND
     1    22     5    1
     2    21     4    1
     3     5     4   ar
     4     5     6   ar
     5    26    10    1
     6     4     3   ar
     7    23     6    1
     8     6     7   ar
     9    25     9    1
    10    10     9   ar
    11    10    11   ar
    12     3    20    1
    13     3     2   ar
    14     9     8   ar
    15    27    11    1
    16     7     2   ar
    17     7    24    1
    18    11    12   ar
    19     2     1    1
    20    30    15    1
    21     8     1    1
    22     8    13   ar
    23    12    13   ar
    24    12    28    1
    25    31    16    1
    26    15    16   ar
    27    15    14   ar
    28     1    14    1
    29    13    29    1
    30    16    17   ar
    31    14    19   ar
    32    17    32    1
    33    17    18   ar
    34    19    18   ar
    35    19    34    1
    36    18    33    1
