@<TRIPOS>MOLECULE
2
 31 33 0 0 0
SMALL
GASTEIGER

@<TRIPOS>ATOM
      1 P           2.4091    2.4488    2.8455 P.3     1  UNL1        0.0000
      2 P          -1.1424    2.9571    2.5094 P.3     1  UNL1        0.0000
      3 P          -0.9901    0.9090    3.1892 P.3     1  UNL1        0.0000
      4 P          -0.8847    2.5697    4.6210 P.3     1  UNL1        0.0000
      5 SI          0.8827    3.5628    1.5993 Si      1  UNL1        0.0000
      6 SI          1.2257    0.4989    2.7203 Si      1  UNL1        0.0000
      7 SI          1.3666    3.0180    4.7970 Si      1  UNL1        0.0000
      8 C           0.9824    5.4669    1.7475 C.3     1  UNL1        0.0000
      9 C           0.7886    3.0090   -0.2296 C.3     1  UNL1        0.0000
     10 C           1.3239   -0.2687    0.9726 C.3     1  UNL1        0.0000
     11 C           1.8803   -0.7635    3.9972 C.3     1  UNL1        0.0000
     12 C           2.1151    2.0081    6.2405 C.3     1  UNL1        0.0000
     13 C           1.5070    4.8827    5.1914 C.3     1  UNL1        0.0000
     14 H           1.8814    5.7863    2.2637 H       1  UNL1        0.0000
     15 H           0.1194    5.8602    2.2809 H       1  UNL1        0.0000
     16 H           0.9876    5.9178    0.7607 H       1  UNL1        0.0000
     17 H           0.7147    3.8755   -0.8788 H       1  UNL1        0.0000
     18 H          -0.0936    2.3959   -0.4029 H       1  UNL1        0.0000
     19 H           1.6649    2.4434   -0.5277 H       1  UNL1        0.0000
     20 H           2.2950   -0.0862    0.5253 H       1  UNL1        0.0000
     21 H           0.5607    0.1219    0.3083 H       1  UNL1        0.0000
     22 H           1.1845   -1.3422    1.0393 H       1  UNL1        0.0000
     23 H           1.5684   -1.7641    3.7171 H       1  UNL1        0.0000
     24 H           1.5056   -0.5670    4.9959 H       1  UNL1        0.0000
     25 H           2.9644   -0.7482    4.0284 H       1  UNL1        0.0000
     26 H           2.9552    1.4090    5.9070 H       1  UNL1        0.0000
     27 H           1.3794    1.3497    6.6920 H       1  UNL1        0.0000
     28 H           2.4728    2.6811    7.0114 H       1  UNL1        0.0000
     29 H           1.3483    5.0408    6.2530 H       1  UNL1        0.0000
     30 H           0.7684    5.4713    4.6577 H       1  UNL1        0.0000
     31 H           2.4936    5.2585    4.9420 H       1  UNL1        0.0000
@<TRIPOS>BOND
     1    17     9    1
     2    19     9    1
     3    18     9    1
     4     9     5    1
     5    21    10    1
     6    20    10    1
     7    16     8    1
     8    10    22    1
     9    10     6    1
    10     5     8    1
    11     5     2    1
    12     5     1    1
    13     8    14    1
    14     8    15    1
    15     2     3    1
    16     2     4    1
    17     6     1    1
    18     6     3    1
    19     6    11    1
    20     1     7    1
    21     3     4    1
    22    23    11    1
    23    11    25    1
    24    11    24    1
    25     4     7    1
    26    30    13    1
    27     7    13    1
    28     7    12    1
    29    31    13    1
    30    13    29    1
    31    26    12    1
    32    12    27    1
    33    12    28    1
