@<TRIPOS>MOLECULE
1
 81 83 0 0 0
SMALL
GASTEIGER

@<TRIPOS>ATOM
      1 P           6.6851   14.4352    8.9737 P.3     1  UNL1        0.0000
      2 O           6.0969   12.8689   10.9581 O.3     1  UNL1        0.0000
      3 C           6.2791   12.9190    9.6008 C.3     1  UNL1        0.0000
      4 B           6.1044   11.7210    8.6229 B       1  UNL1        0.0000
      5 N           5.0723   10.7481    8.4362 N.ar    1  UNL1        0.0000
      6 N           7.0209   11.5007    7.5516 N.ar    1  UNL1        0.0000
      7 SI          6.0103   11.7329   12.1277 Si      1  UNL1        0.0000
      8 C           5.4108    9.9854    7.3267 C.ar    1  UNL1        0.0000
      9 H           4.7744    9.1980    6.9749 H       1  UNL1        0.0000
     10 C           6.5634   10.4353    6.8000 C.ar    1  UNL1        0.0000
     11 H           7.1035   10.0721    5.9463 H       1  UNL1        0.0000
     12 C           3.7869   10.5985    9.0056 C.ar    1  UNL1        0.0000
     13 C           3.4036    9.3769    9.5794 C.ar    1  UNL1        0.0000
     14 C           2.1151    9.2462   10.0814 C.ar    1  UNL1        0.0000
     15 H           1.8074    8.3096   10.5200 H       1  UNL1        0.0000
     16 C           1.2212   10.2969   10.0367 C.ar    1  UNL1        0.0000
     17 H           0.2268   10.1814   10.4419 H       1  UNL1        0.0000
     18 C           1.6038   11.4924    9.4619 C.ar    1  UNL1        0.0000
     19 H           0.8960   12.3059    9.4162 H       1  UNL1        0.0000
     20 C           2.8732   11.6608    8.9258 C.ar    1  UNL1        0.0000
     21 C           4.3444    8.1965    9.6792 C.3     1  UNL1        0.0000
     22 H           5.3380    8.5060    9.3432 H       1  UNL1        0.0000
     23 C           3.8691    7.0469    8.7852 C.3     1  UNL1        0.0000
     24 H           2.8954    6.6867    9.1093 H       1  UNL1        0.0000
     25 H           4.5748    6.2201    8.8329 H       1  UNL1        0.0000
     26 H           3.7814    7.3631    7.7482 H       1  UNL1        0.0000
     27 C           4.4652    7.7097   11.1260 C.3     1  UNL1        0.0000
     28 H           4.6843    8.5410   11.7892 H       1  UNL1        0.0000
     29 H           5.2668    6.9782   11.2045 H       1  UNL1        0.0000
     30 H           3.5443    7.2370   11.4580 H       1  UNL1        0.0000
     31 C           3.2009   12.9634    8.2327 C.3     1  UNL1        0.0000
     32 H           4.2348   12.9338    7.8802 H       1  UNL1        0.0000
     33 C           2.2998   13.1565    7.0096 C.3     1  UNL1        0.0000
     34 H           2.4116   12.3209    6.3216 H       1  UNL1        0.0000
     35 H           2.5740   14.0715    6.4891 H       1  UNL1        0.0000
     36 H           1.2531   13.2248    7.2965 H       1  UNL1        0.0000
     37 C           3.0801   14.1449    9.1957 C.3     1  UNL1        0.0000
     38 H           2.0497   14.2989    9.5074 H       1  UNL1        0.0000
     39 H           3.4374   15.0527    8.7134 H       1  UNL1        0.0000
     40 H           3.6876   13.9697   10.0793 H       1  UNL1        0.0000
     41 C           8.1045   12.2996    7.1213 C.ar    1  UNL1        0.0000
     42 C           9.2986   12.3157    7.8553 C.ar    1  UNL1        0.0000
     43 C          10.3379   13.1210    7.4163 C.ar    1  UNL1        0.0000
     44 H          11.2681   13.1458    7.9606 H       1  UNL1        0.0000
     45 C          10.2034   13.8984    6.2808 C.ar    1  UNL1        0.0000
     46 H          11.0215   14.5247    5.9552 H       1  UNL1        0.0000
     47 C           9.0252   13.8724    5.5631 C.ar    1  UNL1        0.0000
     48 H           8.9303   14.4857    4.6795 H       1  UNL1        0.0000
     49 C           7.9612   13.0757    5.9647 C.ar    1  UNL1        0.0000
     50 C           9.4346   11.4325    9.0736 C.3     1  UNL1        0.0000
     51 H           8.4705   11.4399    9.5891 H       1  UNL1        0.0000
     52 C          10.4919   11.9105   10.0653 C.3     1  UNL1        0.0000
     53 H          11.4971   11.7860    9.6682 H       1  UNL1        0.0000
     54 H          10.4226   11.3270   10.9812 H       1  UNL1        0.0000
     55 H          10.3334   12.9557   10.3171 H       1  UNL1        0.0000
     56 C           9.7365    9.9965    8.6298 C.3     1  UNL1        0.0000
     57 H           8.9421    9.6148    7.9932 H       1  UNL1        0.0000
     58 H           9.8258    9.3449    9.4964 H       1  UNL1        0.0000
     59 H          10.6714    9.9628    8.0730 H       1  UNL1        0.0000
     60 C           6.6775   13.0922    5.1649 C.3     1  UNL1        0.0000
     61 H           5.9789   12.3707    5.5944 H       1  UNL1        0.0000
     62 C           6.0189   14.4698    5.2509 C.3     1  UNL1        0.0000
     63 H           5.8218   14.7077    6.2952 H       1  UNL1        0.0000
     64 H           5.0776   14.4705    4.7050 H       1  UNL1        0.0000
     65 H           6.6626   15.2391    4.8306 H       1  UNL1        0.0000
     66 C           6.9264   12.6925    3.7085 C.3     1  UNL1        0.0000
     67 H           7.5523   13.4223    3.2013 H       1  UNL1        0.0000
     68 H           5.9814   12.6241    3.1735 H       1  UNL1        0.0000
     69 H           7.4212   11.7250    3.6576 H       1  UNL1        0.0000
     70 C           7.0206   10.1735   11.6909 C.3     1  UNL1        0.0000
     71 H           6.7783    9.8004   10.7008 H       1  UNL1        0.0000
     72 H           6.8481    9.3719   12.4012 H       1  UNL1        0.0000
     73 H           8.0845   10.3927   11.7076 H       1  UNL1        0.0000
     74 C           4.1778   11.3702   12.5092 C.3     1  UNL1        0.0000
     75 H           3.6645   12.2933   12.7636 H       1  UNL1        0.0000
     76 H           4.0816   10.7018   13.3592 H       1  UNL1        0.0000
     77 H           3.6482   10.9264   11.6735 H       1  UNL1        0.0000
     78 C           6.7817   12.5454   13.6661 C.3     1  UNL1        0.0000
     79 H           7.8545   12.6741   13.5717 H       1  UNL1        0.0000
     80 H           6.5988   11.9356   14.5447 H       1  UNL1        0.0000
     81 H           6.3507   13.5240   13.8490 H       1  UNL1        0.0000
@<TRIPOS>BOND
     1    68    66    1
     2    67    66    1
     3    69    66    1
     4    66    60    1
     5    48    47    1
     6    64    62    1
     7    65    62    1
     8    60    62    1
     9    60    61    1
    10    60    49    1
    11    62    63    1
    12    47    49   ar
    13    47    45   ar
    14    11    10    1
    15    46    45    1
    16    49    41   ar
    17    45    43   ar
    18    34    33    1
    19    35    33    1
    20    10     8   ar
    21    10     6   ar
    22     9     8    1
    23    33    36    1
    24    33    31    1
    25    41     6    1
    26    41    42   ar
    27     8     5   ar
    28    43    42   ar
    29    43    44    1
    30     6     4   ar
    31    26    23    1
    32    42    50    1
    33    32    31    1
    34    57    56    1
    35    59    56    1
    36    31    20    1
    37    31    37    1
    38     5     4   ar
    39     5    12    1
    40     4     3    1
    41    56    50    1
    42    56    58    1
    43    39    37    1
    44    23    25    1
    45    23    24    1
    46    23    21    1
    47    20    12   ar
    48    20    18   ar
    49     1     3    1
    50    12    13   ar
    51    50    51    1
    52    50    52    1
    53    37    38    1
    54    37    40    1
    55    22    21    1
    56    19    18    1
    57    18    16   ar
    58    13    21    1
    59    13    14   ar
    60     3     2    1
    61    53    52    1
    62    21    27    1
    63    16    14   ar
    64    16    17    1
    65    52    55    1
    66    52    54    1
    67    14    15    1
    68    71    70    1
    69     2     7    1
    70    27    29    1
    71    27    30    1
    72    27    28    1
    73    77    74    1
    74    70    73    1
    75    70     7    1
    76    70    72    1
    77     7    74    1
    78     7    78    1
    79    74    75    1
    80    74    76    1
    81    79    78    1
    82    78    81    1
    83    78    80    1
