@<TRIPOS>MOLECULE
1
 65 65 0 0 0
SMALL
GASTEIGER

@<TRIPOS>ATOM
      1 P           5.3300    2.0666   10.8323 P.3     1  UNL1        0.0000
      2 H           5.1583    2.9386    9.7637 H       1  UNL1        0.0000
      3 SI          7.5754    1.8385   10.4991 Si      1  UNL1        0.0000
      4 SI          7.8380    4.1261   11.2708 Si      1  UNL1        0.0000
      5 SI          5.6756    3.7861   12.2950 Si      1  UNL1        0.0000
      6 C           5.9469    3.0060   14.0408 C.3     1  UNL1        0.0000
      7 H           6.8963    2.4615   14.0066 H       1  UNL1        0.0000
      8 C           4.8521    2.0024   14.3850 C.3     1  UNL1        0.0000
      9 H           4.7710    1.2427   13.6068 H       1  UNL1        0.0000
     10 H           3.8873    2.4954   14.4824 H       1  UNL1        0.0000
     11 H           5.0696    1.5010   15.3273 H       1  UNL1        0.0000
     12 C           6.0600    4.0620   15.1343 C.3     1  UNL1        0.0000
     13 H           5.1354    4.6274   15.2206 H       1  UNL1        0.0000
     14 H           6.8702    4.7548   14.9223 H       1  UNL1        0.0000
     15 H           6.2565    3.5939   16.0978 H       1  UNL1        0.0000
     16 C           7.9119    5.5063    9.9026 C.3     1  UNL1        0.0000
     17 H           8.0748    6.4633   10.4087 H       1  UNL1        0.0000
     18 C           7.9569    1.1699    8.7263 C.3     1  UNL1        0.0000
     19 H           7.6836    0.1098    8.7083 H       1  UNL1        0.0000
     20 C           4.1050    4.9139   12.3671 C.3     1  UNL1        0.0000
     21 H           3.5103    4.5942   13.2307 H       1  UNL1        0.0000
     22 C           3.2252    4.7472   11.1329 C.3     1  UNL1        0.0000
     23 H           2.9630    3.6986   10.9858 H       1  UNL1        0.0000
     24 H           3.7313    5.0990   10.2363 H       1  UNL1        0.0000
     25 H           2.3019    5.3143   11.2422 H       1  UNL1        0.0000
     26 C           4.4691    6.3817   12.5801 C.3     1  UNL1        0.0000
     27 H           5.0489    6.7649   11.7437 H       1  UNL1        0.0000
     28 H           5.0582    6.5085   13.4849 H       1  UNL1        0.0000
     29 H           3.5687    6.9870   12.6721 H       1  UNL1        0.0000
     30 C           8.0231    0.4901   11.8145 C.3     1  UNL1        0.0000
     31 H           7.3091    0.6329   12.6344 H       1  UNL1        0.0000
     32 C           9.2061    4.5040   12.5965 C.3     1  UNL1        0.0000
     33 H           9.0213    3.8233   13.4333 H       1  UNL1        0.0000
     34 C           6.5990    5.6199    9.1353 C.3     1  UNL1        0.0000
     35 H           5.7767    5.8507    9.8061 H       1  UNL1        0.0000
     36 H           6.3669    4.6903    8.6212 H       1  UNL1        0.0000
     37 H           6.6607    6.4108    8.3890 H       1  UNL1        0.0000
     38 C           7.8184   -0.9257   11.2805 C.3     1  UNL1        0.0000
     39 H           8.5653   -1.1676   10.5272 H       1  UNL1        0.0000
     40 H           6.8278   -1.0372   10.8410 H       1  UNL1        0.0000
     41 H           7.9096   -1.6503   12.0886 H       1  UNL1        0.0000
     42 C           9.4434    1.2678    8.3918 C.3     1  UNL1        0.0000
     43 H          10.0388    0.7125    9.1124 H       1  UNL1        0.0000
     44 H           9.7802    2.3016    8.4010 H       1  UNL1        0.0000
     45 H           9.6383    0.8557    7.4030 H       1  UNL1        0.0000
     46 C          10.6295    4.2556   12.1047 C.3     1  UNL1        0.0000
     47 H          10.9192    5.0108   11.3789 H       1  UNL1        0.0000
     48 H          10.7239    3.2779   11.6397 H       1  UNL1        0.0000
     49 H          11.3328    4.3097   12.9345 H       1  UNL1        0.0000
     50 C           9.0599    5.3079    8.9153 C.3     1  UNL1        0.0000
     51 H           8.9177    4.3952    8.3430 H       1  UNL1        0.0000
     52 H          10.0174    5.2463    9.4232 H       1  UNL1        0.0000
     53 H           9.1025    6.1402    8.2138 H       1  UNL1        0.0000
     54 C           9.4271    0.6295   12.3878 C.3     1  UNL1        0.0000
     55 H           9.5561    1.5921   12.8735 H       1  UNL1        0.0000
     56 H          10.1752    0.5361   11.6037 H       1  UNL1        0.0000
     57 H           9.6159   -0.1508   13.1239 H       1  UNL1        0.0000
     58 C           9.0894    5.9284   13.1338 C.3     1  UNL1        0.0000
     59 H           8.0743    6.1441   13.4596 H       1  UNL1        0.0000
     60 H           9.3622    6.6498   12.3678 H       1  UNL1        0.0000
     61 H           9.7594    6.0716   13.9801 H       1  UNL1        0.0000
     62 C           7.1110    1.8571    7.6614 C.3     1  UNL1        0.0000
     63 H           7.3609    2.9125    7.5778 H       1  UNL1        0.0000
     64 H           6.0511    1.7696    7.9004 H       1  UNL1        0.0000
     65 H           7.2743    1.3951    6.6890 H       1  UNL1        0.0000
@<TRIPOS>BOND
     1    65    62    1
     2    45    42    1
     3    63    62    1
     4    62    64    1
     5    62    18    1
     6    53    50    1
     7    51    50    1
     8    37    34    1
     9    42    44    1
    10    42    18    1
    11    42    43    1
    12    36    34    1
    13    19    18    1
    14    18     3    1
    15    50    52    1
    16    50    16    1
    17    34    35    1
    18    34    16    1
    19     2     1    1
    20    16    17    1
    21    16     4    1
    22    24    22    1
    23     3     1    1
    24     3     4    1
    25     3    30    1
    26    39    38    1
    27     1     5    1
    28    40    38    1
    29    23    22    1
    30    22    25    1
    31    22    20    1
    32     4     5    1
    33     4    32    1
    34    38    30    1
    35    38    41    1
    36    47    46    1
    37    56    54    1
    38    48    46    1
    39    27    26    1
    40    30    54    1
    41    30    31    1
    42    46    32    1
    43    46    49    1
    44     5    20    1
    45     5     6    1
    46    20    26    1
    47    20    21    1
    48    60    58    1
    49    54    55    1
    50    54    57    1
    51    26    29    1
    52    26    28    1
    53    32    58    1
    54    32    33    1
    55    58    59    1
    56    58    61    1
    57     9     8    1
    58     7     6    1
    59     6     8    1
    60     6    12    1
    61     8    10    1
    62     8    11    1
    63    14    12    1
    64    12    13    1
    65    12    15    1
