@<TRIPOS>MOLECULE
1
 23 24 0 0 0
SMALL
GASTEIGER

@<TRIPOS>ATOM
      1 P           7.3113    1.8958    3.2972 P.3     1  UNL1       -0.0098
      2 C           5.5025    2.1185    3.1508 C.ar    1  UNL1       -0.0142
      3 C           4.6609    1.3240    3.9300 C.ar    1  UNL1       -0.0535
      4 H           5.1022    0.6079    4.6106 H       1  UNL1        0.0624
      5 C           3.2862    1.4245    3.8262 C.ar    1  UNL1       -0.0611
      6 H           2.6516    0.7990    4.4388 H       1  UNL1        0.0618
      7 C           2.7203    2.3095    2.9240 C.ar    1  UNL1       -0.0617
      8 H           1.6465    2.3828    2.8323 H       1  UNL1        0.0618
      9 C           3.5434    3.0948    2.1313 C.ar    1  UNL1       -0.0611
     10 H           3.1075    3.7828    1.4198 H       1  UNL1        0.0618
     11 C           4.9176    3.0076    2.2470 C.ar    1  UNL1       -0.0535
     12 H           5.5462    3.6221    1.6167 H       1  UNL1        0.0624
     13 C           7.7468    1.8015    1.5434 C.ar    1  UNL1       -0.0142
     14 C           6.8868    1.2348    0.5947 C.ar    1  UNL1       -0.0535
     15 H           5.8851    0.9536    0.8872 H       1  UNL1        0.0624
     16 C           7.3003    1.0290   -0.7053 C.ar    1  UNL1       -0.0611
     17 H           6.6128    0.6030   -1.4231 H       1  UNL1        0.0618
     18 C           8.5943    1.3439   -1.0905 C.ar    1  UNL1       -0.0617
     19 H           8.9195    1.1701   -2.1058 H       1  UNL1        0.0618
     20 C           9.4679    1.8772   -0.1556 C.ar    1  UNL1       -0.0611
     21 H          10.4820    2.1139   -0.4446 H       1  UNL1        0.0618
     22 C           9.0507    2.1123    1.1395 C.ar    1  UNL1       -0.0535
     23 H           9.7322    2.5575    1.8574 H       1  UNL1        0.0624
@<TRIPOS>BOND
     1    19    18    1
     2    17    16    1
     3    18    16   ar
     4    18    20   ar
     5    16    14   ar
     6    21    20    1
     7    20    22   ar
     8    14    15    1
     9    14    13   ar
    10    22    13   ar
    11    22    23    1
    12    10     9    1
    13    13     1    1
    14    12    11    1
    15     9    11   ar
    16     9     7   ar
    17    11     2   ar
    18     8     7    1
    19     7     5   ar
    20     2     1    1
    21     2     3   ar
    22     5     3   ar
    23     5     6    1
    24     3     4    1
