@<TRIPOS>MOLECULE
1
 11 10 0 0 0
SMALL
GASTEIGER

@<TRIPOS>ATOM
      1 P           1.3247    2.9467    5.5890 P.3     1  UNL1       -0.0982
      2 H           0.6239    1.7393    5.7745 H       1  UNL1        0.0621
      3 P           3.6282    1.2427    9.1325 P.3     1  UNL1       -0.1368
      4 H           4.3835    2.4107    9.0126 H       1  UNL1        0.0544
      5 H           2.6455    1.9053    9.8724 H       1  UNL1        0.0544
      6 C           2.2182    2.8193    7.2475 C.3     1  UNL1       -0.0279
      7 H           3.0557    3.5237    7.2138 H       1  UNL1        0.0317
      8 H           1.5631    3.1242    8.0725 H       1  UNL1        0.0317
      9 C           2.7605    1.4200    7.4976 C.3     1  UNL1       -0.0338
     10 H           3.4652    1.1363    6.7102 H       1  UNL1        0.0312
     11 H           1.9516    0.6816    7.4802 H       1  UNL1        0.0312
@<TRIPOS>BOND
     1     1     2    1
     2     1     6    1
     3    10     9    1
     4     7     6    1
     5     6     9    1
     6     6     8    1
     7    11     9    1
     8     9     3    1
     9     4     3    1
    10     3     5    1
