@<TRIPOS>MOLECULE
1
 20 20 0 0 0
SMALL
GASTEIGER

@<TRIPOS>ATOM
      1 P          10.2996   -0.3291    4.6878 P.3     1  UNL1       -0.0810
      2 C           9.5053   -1.8391    5.3802 C.ar    1  UNL1       -0.0239
      3 C           9.9935   -3.1324    5.2360 C.ar    1  UNL1       -0.0542
      4 H          10.8971   -3.3228    4.6772 H       1  UNL1        0.0624
      5 C           9.3209   -4.1995    5.8068 C.ar    1  UNL1       -0.0612
      6 H           9.7111   -5.2000    5.6901 H       1  UNL1        0.0618
      7 C           8.1549   -3.9918    6.5233 C.ar    1  UNL1       -0.0617
      8 H           7.6361   -4.8275    6.9681 H       1  UNL1        0.0618
      9 C           7.6513   -2.7080    6.6574 C.ar    1  UNL1       -0.0612
     10 H           6.7342   -2.5389    7.2022 H       1  UNL1        0.0618
     11 C           8.3181   -1.6437    6.0807 C.ar    1  UNL1       -0.0542
     12 H           7.9149   -0.6429    6.1527 H       1  UNL1        0.0624
     13 C          11.9515   -0.9756    4.1892 C.3     1  UNL1       -0.0405
     14 H          12.3697   -1.6052    4.9747 H       1  UNL1        0.0280
     15 H          12.6098   -0.1195    4.0390 H       1  UNL1        0.0280
     16 H          11.8882   -1.5363    3.2591 H       1  UNL1        0.0280
     17 C          10.8052    0.3866    6.3189 C.3     1  UNL1       -0.0405
     18 H          11.3863   -0.3487    6.8769 H       1  UNL1        0.0280
     19 H           9.9276    0.6532    6.9057 H       1  UNL1        0.0280
     20 H          11.4122    1.2777    6.1554 H       1  UNL1        0.0280
@<TRIPOS>BOND
     1    16    13    1
     2    15    13    1
     3    13     1    1
     4    13    14    1
     5     4     3    1
     6     1     2    1
     7     1    17    1
     8     3     2   ar
     9     3     5   ar
    10     2    11   ar
    11     6     5    1
    12     5     7   ar
    13    11    12    1
    14    11     9   ar
    15    20    17    1
    16    17    18    1
    17    17    19    1
    18     7     9   ar
    19     7     8    1
    20     9    10    1
