@<TRIPOS>MOLECULE
4
 42 41 0 0 0
SMALL
GASTEIGER

@<TRIPOS>ATOM
      1 SI          4.4477   -3.3058    4.7701 Si      1  UNL1        0.0000
      2 SI          2.0958   -5.4661    5.2481 Si      1  UNL1        0.0000
      3 SI          2.8791   -4.5752    2.2424 Si      1  UNL1        0.0000
      4 P           2.2388   -0.9903    3.9220 P.3     1  UNL1        0.0000
      5 P           1.3988   -2.8200    4.0767 P.3     1  UNL1        0.0000
      6 C           2.7920   -4.0541    4.1080 C.3     1  UNL1        0.0000
      7 C           5.4483   -2.2801    3.5005 C.3     1  UNL1        0.0000
      8 C           5.6449   -4.7024    5.2896 C.3     1  UNL1        0.0000
      9 C           4.1834   -2.2070    6.3173 C.3     1  UNL1        0.0000
     10 C           2.9817   -7.1358    4.9732 C.3     1  UNL1        0.0000
     11 C           0.2267   -5.7915    5.0232 C.3     1  UNL1        0.0000
     12 C           2.2742   -4.9563    7.0808 C.3     1  UNL1        0.0000
     13 C           1.3447   -5.5786    1.7109 C.3     1  UNL1        0.0000
     14 C           4.4259   -5.6353    1.8811 C.3     1  UNL1        0.0000
     15 C           2.9012   -3.0499    1.0912 C.3     1  UNL1        0.0000
     16 H           4.9144   -1.3833    3.2042 H       1  UNL1        0.0000
     17 H           6.3930   -1.9720    3.9404 H       1  UNL1        0.0000
     18 H           5.6748   -2.8465    2.6043 H       1  UNL1        0.0000
     19 H           5.2643   -5.2851    6.1195 H       1  UNL1        0.0000
     20 H           5.8516   -5.3825    4.4726 H       1  UNL1        0.0000
     21 H           6.5911   -4.2723    5.6008 H       1  UNL1        0.0000
     22 H           4.6307   -2.6439    7.2045 H       1  UNL1        0.0000
     23 H           4.6242   -1.2250    6.1760 H       1  UNL1        0.0000
     24 H           3.1262   -2.0591    6.5144 H       1  UNL1        0.0000
     25 H           2.6478   -7.8529    5.7158 H       1  UNL1        0.0000
     26 H           2.7555   -7.5501    3.9970 H       1  UNL1        0.0000
     27 H           4.0579   -7.0554    5.0581 H       1  UNL1        0.0000
     28 H          -0.1452   -6.4153    5.8312 H       1  UNL1        0.0000
     29 H          -0.3334   -4.8623    5.0409 H       1  UNL1        0.0000
     30 H          -0.0019   -6.2958    4.0922 H       1  UNL1        0.0000
     31 H           1.8347   -5.7081    7.7292 H       1  UNL1        0.0000
     32 H           3.3067   -4.8260    7.3813 H       1  UNL1        0.0000
     33 H           1.7554   -4.0211    7.2665 H       1  UNL1        0.0000
     34 H           1.3313   -6.5725    2.1439 H       1  UNL1        0.0000
     35 H           0.4324   -5.0691    2.0038 H       1  UNL1        0.0000
     36 H           1.3249   -5.6929    0.6311 H       1  UNL1        0.0000
     37 H           4.4756   -6.5044    2.5254 H       1  UNL1        0.0000
     38 H           4.3932   -5.9899    0.8563 H       1  UNL1        0.0000
     39 H           5.3466   -5.0778    2.0052 H       1  UNL1        0.0000
     40 H           3.2862   -3.2953    0.1059 H       1  UNL1        0.0000
     41 H           1.8942   -2.6614    0.9669 H       1  UNL1        0.0000
     42 H           3.5053   -2.2460    1.4974 H       1  UNL1        0.0000
@<TRIPOS>BOND
     1    40    15    1
     2    36    13    1
     3    38    14    1
     4    41    15    1
     5    15    42    1
     6    15     3    1
     7    13    35    1
     8    13    34    1
     9    13     3    1
    10    14    39    1
    11    14     3    1
    12    14    37    1
    13     3     6    1
    14    18     7    1
    15    16     7    1
    16     7    17    1
    17     7     1    1
    18     4     5    1
    19    26    10    1
    20     5     6    1
    21    30    11    1
    22     6     1    1
    23     6     2    1
    24    20     8    1
    25     1     8    1
    26     1     9    1
    27    10    27    1
    28    10     2    1
    29    10    25    1
    30    11    29    1
    31    11     2    1
    32    11    28    1
    33     2    12    1
    34     8    21    1
    35     8    19    1
    36    23     9    1
    37     9    24    1
    38     9    22    1
    39    12    33    1
    40    12    32    1
    41    12    31    1
