@<TRIPOS>MOLECULE
1
 14 14 0 0 0
SMALL
GASTEIGER

@<TRIPOS>ATOM
      1 P           1.1311    3.1056    3.4047 P.3     1  UNL1        0.0776
      2 N           1.5456    2.9272    5.1051 N.3     1  UNL1       -0.1870
      3 C           0.3900    2.4233    4.8607 C.3     1  UNL1        0.1188
      4 C          -0.6171    1.6552    5.5134 C.ar    1  UNL1       -0.0211
      5 C          -0.6640    1.5904    6.9091 C.ar    1  UNL1       -0.0566
      6 H           0.0587    2.1477    7.4853 H       1  UNL1        0.0621
      7 C          -1.6296    0.8210    7.5261 C.ar    1  UNL1       -0.0614
      8 H          -1.6709    0.7719    8.6039 H       1  UNL1        0.0618
      9 C          -2.5413    0.1042    6.7646 C.ar    1  UNL1       -0.0617
     10 H          -3.2916   -0.4998    7.2525 H       1  UNL1        0.0618
     11 C          -2.4904    0.1550    5.3795 C.ar    1  UNL1       -0.0614
     12 H          -3.1959   -0.4122    4.7914 H       1  UNL1        0.0618
     13 C          -1.5379    0.9328    4.7519 C.ar    1  UNL1       -0.0566
     14 H          -1.4803    0.9732    3.6732 H       1  UNL1        0.0621
@<TRIPOS>BOND
     1     1     2    1
     2    14    13    1
     3    13    11   ar
     4    13     4   ar
     5    12    11    1
     6     3     2    1
     7     3     4    1
     8    11     9   ar
     9     4     5   ar
    10     9    10    1
    11     9     7   ar
    12     5     6    1
    13     5     7   ar
    14     7     8    1
