@<TRIPOS>MOLECULE
1
 13 12 0 0 0
SMALL
GASTEIGER

@<TRIPOS>ATOM
      1 P           6.0581    1.6792   -3.6906 P.3     1  UNL1       -0.1154
      2 C           5.4344    0.2527   -4.6772 C.3     1  UNL1       -0.0447
      3 H           6.2287   -0.4738   -4.8458 H       1  UNL1        0.0277
      4 H           5.0627    0.6114   -5.6346 H       1  UNL1        0.0277
      5 H           4.6145   -0.2235   -4.1431 H       1  UNL1        0.0277
      6 C           6.9141    0.7880   -2.3315 C.3     1  UNL1       -0.0447
      7 H           7.5786    0.0211   -2.7294 H       1  UNL1        0.0277
      8 H           6.1695    0.3272   -1.6844 H       1  UNL1        0.0277
      9 H           7.4893    1.5041   -1.7460 H       1  UNL1        0.0277
     10 C           7.4907    2.1888   -4.7237 C.3     1  UNL1       -0.0447
     11 H           8.0838    1.3282   -5.0339 H       1  UNL1        0.0277
     12 H           8.1097    2.8703   -4.1414 H       1  UNL1        0.0277
     13 H           7.1205    2.7186   -5.6022 H       1  UNL1        0.0277
@<TRIPOS>BOND
     1     4     2    1
     2    13    10    1
     3    11    10    1
     4     3     2    1
     5    10    12    1
     6    10     1    1
     7     2     5    1
     8     2     1    1
     9     1     6    1
    10     7     6    1
    11     6     9    1
    12     6     8    1
