@<TRIPOS>MOLECULE
1
 13 12 0 0 0
SMALL
GASTEIGER

@<TRIPOS>ATOM
      1 P           3.6592    5.7225   -2.0180 P.3     1  UNL1       -0.1154
      2 C           3.6263    5.5788   -0.1910 C.3     1  UNL1       -0.0447
      3 H           3.0600    6.3948    0.2587 H       1  UNL1        0.0277
      4 H           4.6503    5.5926    0.1817 H       1  UNL1        0.0277
      5 H           3.1707    4.6227    0.0619 H       1  UNL1        0.0277
      6 C           1.8770    5.9339   -2.3963 C.3     1  UNL1       -0.0447
      7 H           1.4414    6.7492   -1.8189 H       1  UNL1        0.0277
      8 H           1.3755    4.9967   -2.1609 H       1  UNL1        0.0277
      9 H           1.7570    6.1322   -3.4612 H       1  UNL1        0.0277
     10 C           4.2679    7.4529   -2.2054 C.3     1  UNL1       -0.0447
     11 H           3.7155    8.1283   -1.5533 H       1  UNL1        0.0277
     12 H           4.1468    7.7690   -3.2397 H       1  UNL1        0.0277
     13 H           5.3264    7.4863   -1.9504 H       1  UNL1        0.0277
@<TRIPOS>BOND
     1     9     6    1
     2    12    10    1
     3     6     8    1
     4     6     1    1
     5     6     7    1
     6    10     1    1
     7    10    13    1
     8    10    11    1
     9     1     2    1
    10     2     5    1
    11     2     4    1
    12     2     3    1
