@<TRIPOS>MOLECULE
1
 13 12 0 0 0
SMALL
GASTEIGER

@<TRIPOS>ATOM
      1 P           3.1652    2.9587   13.1512 P.3     1  UNL1       -0.1154
      2 C           2.6465    4.4223   14.1280 C.3     1  UNL1       -0.0447
      3 C           2.7262    1.7543   14.4849 C.3     1  UNL1       -0.0447
      4 C           4.9781    3.0755   13.5213 C.3     1  UNL1       -0.0447
      5 H           1.5603    4.4368   14.1574 H       1  UNL1        0.0277
      6 H           2.9960    5.3352   13.6624 H       1  UNL1        0.0277
      7 H           3.0435    4.3498   15.1414 H       1  UNL1        0.0277
      8 H           3.2155    2.0474   15.4146 H       1  UNL1        0.0277
      9 H           3.0093    0.7341   14.2433 H       1  UNL1        0.0277
     10 H           1.6463    1.8086   14.6199 H       1  UNL1        0.0277
     11 H           5.1216    3.2083   14.5933 H       1  UNL1        0.0277
     12 H           5.3928    3.9367   13.0022 H       1  UNL1        0.0277
     13 H           5.5114    2.1837   13.1987 H       1  UNL1        0.0277
@<TRIPOS>BOND
     1    12     4    1
     2     1     4    1
     3     1     2    1
     4     1     3    1
     5    13     4    1
     6     4    11    1
     7     6     2    1
     8     2     5    1
     9     2     7    1
    10     9     3    1
    11     3    10    1
    12     3     8    1
