@<TRIPOS>MOLECULE
1
 13 12 0 0 0
SMALL
GASTEIGER

@<TRIPOS>ATOM
      1 P           2.2462    0.3063   11.2915 P.3     1  UNL1       -0.1154
      2 C           1.0586   -0.4676   12.4722 C.3     1  UNL1       -0.0447
      3 C           3.8591   -0.3514   11.9172 C.3     1  UNL1       -0.0447
      4 C           2.0201   -1.0166   10.0029 C.3     1  UNL1       -0.0447
      5 H           1.2712   -1.5313   12.5879 H       1  UNL1        0.0277
      6 H           0.0579   -0.3410   12.0587 H       1  UNL1        0.0277
      7 H           1.0798    0.0245   13.4378 H       1  UNL1        0.0277
      8 H           4.3180    0.3499   12.6096 H       1  UNL1        0.0277
      9 H           4.5284   -0.4770   11.0656 H       1  UNL1        0.0277
     10 H           3.7206   -1.3167   12.4060 H       1  UNL1        0.0277
     11 H           2.4361   -0.7302    9.0418 H       1  UNL1        0.0277
     12 H           0.9619   -1.2311    9.8772 H       1  UNL1        0.0277
     13 H           2.5183   -1.9229   10.3483 H       1  UNL1        0.0277
@<TRIPOS>BOND
     1    11     4    1
     2    12     4    1
     3     4    13    1
     4     4     1    1
     5     9     3    1
     6     1     3    1
     7     1     2    1
     8     3    10    1
     9     3     8    1
    10     6     2    1
    11     2     5    1
    12     2     7    1
