@<TRIPOS>MOLECULE
1
 13 12 0 0 0
SMALL
GASTEIGER

@<TRIPOS>ATOM
      1 P           0.4738    2.6296    9.4658 P.3     1  UNL1       -0.1154
      2 C           0.6669    3.2262    7.7336 C.3     1  UNL1       -0.0447
      3 C          -0.3602    1.0398    9.0409 C.3     1  UNL1       -0.0447
      4 C          -1.0462    3.5337    9.9491 C.3     1  UNL1       -0.0447
      5 H           1.4143    2.6209    7.2217 H       1  UNL1        0.0277
      6 H           0.9903    4.2619    7.7377 H       1  UNL1        0.0277
      7 H          -0.2839    3.1429    7.2066 H       1  UNL1        0.0277
      8 H          -1.2660    1.2416    8.4673 H       1  UNL1        0.0277
      9 H          -0.6244    0.5231    9.9621 H       1  UNL1        0.0277
     10 H           0.3053    0.4165    8.4473 H       1  UNL1        0.0277
     11 H          -1.4384    3.0571   10.8473 H       1  UNL1        0.0277
     12 H          -1.7894    3.4907    9.1517 H       1  UNL1        0.0277
     13 H          -0.8074    4.5643   10.1859 H       1  UNL1        0.0277
@<TRIPOS>BOND
     1     7     2    1
     2     5     2    1
     3     2     6    1
     4     2     1    1
     5    10     3    1
     6     8     3    1
     7     3     1    1
     8     3     9    1
     9    12     4    1
    10     1     4    1
    11     4    13    1
    12     4    11    1
