@<TRIPOS>MOLECULE
1
 13 12 0 0 0
SMALL
GASTEIGER

@<TRIPOS>ATOM
      1 P           3.9242    2.7004    9.6269 P.3     1  UNL1       -0.1154
      2 C           5.6553    2.6078   10.2507 C.3     1  UNL1       -0.0447
      3 C           4.0695    1.3400    8.3847 C.3     1  UNL1       -0.0447
      4 C           4.1985    4.0975    8.4649 C.3     1  UNL1       -0.0447
      5 H           5.7715    1.7576   10.9196 H       1  UNL1        0.0277
      6 H           5.8786    3.5234   10.7945 H       1  UNL1        0.0277
      7 H           6.3490    2.5083    9.4148 H       1  UNL1        0.0277
      8 H           4.8389    1.5770    7.6490 H       1  UNL1        0.0277
      9 H           3.1152    1.2036    7.8772 H       1  UNL1        0.0277
     10 H           4.3374    0.4148    8.8930 H       1  UNL1        0.0277
     11 H           3.3405    4.1966    7.8050 H       1  UNL1        0.0277
     12 H           5.0970    3.9233    7.8710 H       1  UNL1        0.0277
     13 H           4.3099    5.0139    9.0372 H       1  UNL1        0.0277
@<TRIPOS>BOND
     1     8     3    1
     2    11     4    1
     3    12     4    1
     4     9     3    1
     5     3    10    1
     6     3     1    1
     7     4    13    1
     8     4     1    1
     9     7     2    1
    10     1     2    1
    11     2     6    1
    12     2     5    1
