@<TRIPOS>MOLECULE
1
 13 12 0 0 0
SMALL
GASTEIGER

@<TRIPOS>ATOM
      1 P           0.1792    2.7049    5.0710 P.3     1  UNL1       -0.1154
      2 C           0.0340    4.0583    6.3274 C.3     1  UNL1       -0.0447
      3 C          -1.5675    2.8071    4.4732 C.3     1  UNL1       -0.0447
      4 C          -0.1023    1.3154    6.2479 C.3     1  UNL1       -0.0447
      5 H          -0.2537    4.9859    5.8378 H       1  UNL1        0.0277
      6 H           0.9923    4.2043    6.8221 H       1  UNL1        0.0277
      7 H          -0.7196    3.8024    7.0728 H       1  UNL1        0.0277
      8 H          -2.2408    2.9272    5.3226 H       1  UNL1        0.0277
      9 H          -1.8186    1.8892    3.9471 H       1  UNL1        0.0277
     10 H          -1.6925    3.6489    3.7966 H       1  UNL1        0.0277
     11 H          -1.0285    1.4777    6.8006 H       1  UNL1        0.0277
     12 H           0.7285    1.2589    6.9456 H       1  UNL1        0.0277
     13 H          -0.1639    0.3797    5.7019 H       1  UNL1        0.0277
@<TRIPOS>BOND
     1    10     3    1
     2     9     3    1
     3     3     1    1
     4     3     8    1
     5     1     4    1
     6     1     2    1
     7    13     4    1
     8     5     2    1
     9     4    11    1
    10     4    12    1
    11     2     6    1
    12     2     7    1
