@<TRIPOS>MOLECULE
1
 13 12 0 0 0
SMALL
GASTEIGER

@<TRIPOS>ATOM
      1 P           1.4749    3.4091    5.4207 P.3     1  UNL1       -0.1154
      2 C           2.4689    4.8641    5.9869 C.3     1  UNL1       -0.0447
      3 C           2.8808    2.2217    5.3876 C.3     1  UNL1       -0.0447
      4 C           0.8040    2.8513    7.0408 C.3     1  UNL1       -0.0447
      5 H           3.0664    4.5894    6.8566 H       1  UNL1        0.0277
      6 H           1.8250    5.7009    6.2452 H       1  UNL1        0.0277
      7 H           3.1358    5.1720    5.1816 H       1  UNL1        0.0277
      8 H           3.5898    2.4971    4.6096 H       1  UNL1        0.0277
      9 H           3.3896    2.2231    6.3526 H       1  UNL1        0.0277
     10 H           2.4882    1.2261    5.1878 H       1  UNL1        0.0277
     11 H           1.5652    2.9076    7.8205 H       1  UNL1        0.0277
     12 H          -0.0605    3.4450    7.3258 H       1  UNL1        0.0277
     13 H           0.4770    1.8191    6.9151 H       1  UNL1        0.0277
@<TRIPOS>BOND
     1     8     3    1
     2     7     2    1
     3    10     3    1
     4     3     1    1
     5     3     9    1
     6     1     2    1
     7     1     4    1
     8     2     6    1
     9     2     5    1
    10    13     4    1
    11     4    12    1
    12     4    11    1
