@<TRIPOS>MOLECULE
1
 13 12 0 0 0
SMALL
GASTEIGER

@<TRIPOS>ATOM
      1 P           0.7543    5.1281    2.5029 P.3     1  UNL1       -0.1154
      2 C           0.0864    5.6704    0.8767 C.3     1  UNL1       -0.0447
      3 C           0.9327    6.8106    3.2403 C.3     1  UNL1       -0.0447
      4 C           2.5109    4.9370    1.9717 C.3     1  UNL1       -0.0447
      5 H           0.0060    4.8118    0.2140 H       1  UNL1        0.0277
      6 H           0.7360    6.4237    0.4285 H       1  UNL1        0.0277
      7 H          -0.9095    6.0850    1.0188 H       1  UNL1        0.0277
      8 H           1.5295    6.7514    4.1482 H       1  UNL1        0.0277
      9 H          -0.0484    7.2131    3.4858 H       1  UNL1        0.0277
     10 H           1.4228    7.4784    2.5301 H       1  UNL1        0.0277
     11 H           2.8958    5.8731    1.5648 H       1  UNL1        0.0277
     12 H           2.5661    4.1653    1.2052 H       1  UNL1        0.0277
     13 H           3.1187    4.6346    2.8247 H       1  UNL1        0.0277
@<TRIPOS>BOND
     1     5     2    1
     2     6     2    1
     3     2     7    1
     4     2     1    1
     5    12     4    1
     6    11     4    1
     7     4     1    1
     8     4    13    1
     9     1     3    1
    10    10     3    1
    11     3     9    1
    12     3     8    1
