@<TRIPOS>MOLECULE
1
 13 12 0 0 0
SMALL
GASTEIGER

@<TRIPOS>ATOM
      1 P           1.8611    5.1444    3.4688 P.3     1  UNL1       -0.1154
      2 C           2.1218    6.4276    4.7874 C.3     1  UNL1       -0.0447
      3 C           2.8884    6.0458    2.2272 C.3     1  UNL1       -0.0447
      4 C           0.1735    5.7322    2.9763 C.3     1  UNL1       -0.0447
      5 H           3.1827    6.6485    4.8757 H       1  UNL1        0.0277
      6 H           1.7500    6.1013    5.7538 H       1  UNL1        0.0277
      7 H           1.5998    7.3394    4.4950 H       1  UNL1        0.0277
      8 H           2.5894    7.0938    2.1882 H       1  UNL1        0.0277
      9 H           2.8029    5.6023    1.2417 H       1  UNL1        0.0277
     10 H           3.9306    5.9839    2.5373 H       1  UNL1        0.0277
     11 H          -0.3243    4.9816    2.3670 H       1  UNL1        0.0277
     12 H           0.2362    6.6723    2.4271 H       1  UNL1        0.0277
     13 H          -0.4218    5.8896    3.8746 H       1  UNL1        0.0277
@<TRIPOS>BOND
     1     9     3    1
     2     8     3    1
     3     3    10    1
     4     3     1    1
     5    11     4    1
     6    12     4    1
     7     4     1    1
     8     4    13    1
     9     1     2    1
    10     7     2    1
    11     2     5    1
    12     2     6    1
