@<TRIPOS>MOLECULE
1
 13 12 0 0 0
SMALL
GASTEIGER

@<TRIPOS>ATOM
      1 P           4.7395    0.5064    3.7600 P.3     1  UNL1       -0.1154
      2 C           4.7928   -0.8831    4.9649 C.3     1  UNL1       -0.0447
      3 C           4.6291    1.9057    4.9616 C.3     1  UNL1       -0.0447
      4 C           6.5344    0.5962    3.3877 C.3     1  UNL1       -0.0447
      5 H           5.1076   -1.7787    4.4295 H       1  UNL1        0.0277
      6 H           5.4917   -0.6713    5.7750 H       1  UNL1        0.0277
      7 H           3.7993   -1.0591    5.3757 H       1  UNL1        0.0277
      8 H           3.6493    1.9052    5.4373 H       1  UNL1        0.0277
      9 H           5.4020    1.8100    5.7246 H       1  UNL1        0.0277
     10 H           4.7609    2.8494    4.4337 H       1  UNL1        0.0277
     11 H           7.1294    0.6103    4.3020 H       1  UNL1        0.0277
     12 H           6.7892   -0.2759    2.7858 H       1  UNL1        0.0277
     13 H           6.7371    1.4906    2.7992 H       1  UNL1        0.0277
@<TRIPOS>BOND
     1    12     4    1
     2    13     4    1
     3     4     1    1
     4     4    11    1
     5     1     3    1
     6     1     2    1
     7     5     2    1
     8    10     3    1
     9     3     8    1
    10     3     9    1
    11     2     7    1
    12     2     6    1
