@<TRIPOS>MOLECULE
1
 13 12 0 0 0
SMALL
GASTEIGER

@<TRIPOS>ATOM
      1 P           1.4334   -0.1582    3.1091 P.3     1  UNL1       -0.1154
      2 C           1.0684   -1.9285    3.4261 C.3     1  UNL1       -0.0447
      3 C          -0.1532    0.2920    2.2934 C.3     1  UNL1       -0.0447
      4 C           1.0751    0.5113    4.7935 C.3     1  UNL1       -0.0447
      5 H           0.0909   -2.0549    3.8937 H       1  UNL1        0.0277
      6 H           1.0975   -2.4466    2.4678 H       1  UNL1        0.0277
      7 H           1.8435   -2.3482    4.0669 H       1  UNL1        0.0277
      8 H          -0.2124   -0.2543    1.3522 H       1  UNL1        0.0277
      9 H          -0.1708    1.3589    2.0738 H       1  UNL1        0.0277
     10 H          -1.0041    0.0342    2.9252 H       1  UNL1        0.0277
     11 H           0.1040    0.1583    5.1415 H       1  UNL1        0.0277
     12 H           1.0747    1.6001    4.7640 H       1  UNL1        0.0277
     13 H           1.8468    0.1804    5.4874 H       1  UNL1        0.0277
@<TRIPOS>BOND
     1     8     3    1
     2     9     3    1
     3     3    10    1
     4     3     1    1
     5     6     2    1
     6     1     2    1
     7     1     4    1
     8     2     5    1
     9     2     7    1
    10    12     4    1
    11     4    11    1
    12     4    13    1
