@<TRIPOS>MOLECULE
1
 13 12 0 0 0
SMALL
GASTEIGER

@<TRIPOS>ATOM
      1 P           1.0613    2.5114    1.5155 P.3     1  UNL1       -0.1154
      2 C           1.1175    3.8332    0.2093 C.3     1  UNL1       -0.0447
      3 C          -0.7181    2.0735    1.2859 C.3     1  UNL1       -0.0447
      4 C           1.7657    1.2148    0.4202 C.3     1  UNL1       -0.0447
      5 H           2.1433    3.9451   -0.1375 H       1  UNL1        0.0277
      6 H           0.7562    4.7934    0.5641 H       1  UNL1        0.0277
      7 H           0.5027    3.5145   -0.6330 H       1  UNL1        0.0277
      8 H          -0.9102    1.8353    0.2398 H       1  UNL1        0.0277
      9 H          -1.3566    2.9023    1.5855 H       1  UNL1        0.0277
     10 H          -0.9500    1.2069    1.8973 H       1  UNL1        0.0277
     11 H           2.8344    1.3802    0.3151 H       1  UNL1        0.0277
     12 H           1.2927    1.2669   -0.5612 H       1  UNL1        0.0277
     13 H           1.6073    0.2347    0.8535 H       1  UNL1        0.0277
@<TRIPOS>BOND
     1     7     2    1
     2    12     4    1
     3     5     2    1
     4     2     6    1
     5     2     1    1
     6     8     3    1
     7    11     4    1
     8     4    13    1
     9     4     1    1
    10     3     1    1
    11     3     9    1
    12     3    10    1
