@<TRIPOS>MOLECULE
1
 13 12 0 0 0
SMALL
GASTEIGER

@<TRIPOS>ATOM
      1 P           2.9835    2.4918    1.5773 P.3     1  UNL1       -0.1154
      2 C           2.0202    3.5798    2.7185 C.3     1  UNL1       -0.0447
      3 C           4.4596    3.5681    1.3574 C.3     1  UNL1       -0.0447
      4 C           2.1270    2.9014    0.0068 C.3     1  UNL1       -0.0447
      5 H           1.9661    4.5927    2.3184 H       1  UNL1        0.0277
      6 H           2.4995    3.6025    3.6965 H       1  UNL1        0.0277
      7 H           1.0114    3.1850    2.8325 H       1  UNL1        0.0277
      8 H           4.1650    4.6018    1.1722 H       1  UNL1        0.0277
      9 H           5.0278    3.1879    0.5087 H       1  UNL1        0.0277
     10 H           5.0913    3.5211    2.2435 H       1  UNL1        0.0277
     11 H           1.1232    2.4779    0.0213 H       1  UNL1        0.0277
     12 H           2.0730    3.9802   -0.1467 H       1  UNL1        0.0277
     13 H           2.6856    2.4331   -0.8033 H       1  UNL1        0.0277
@<TRIPOS>BOND
     1    13     4    1
     2    12     4    1
     3     4    11    1
     4     4     1    1
     5     9     3    1
     6     8     3    1
     7     3     1    1
     8     3    10    1
     9     1     2    1
    10     5     2    1
    11     2     7    1
    12     2     6    1
