@<TRIPOS>MOLECULE
1
 13 12 0 0 0
SMALL
GASTEIGER

@<TRIPOS>ATOM
      1 P           0.8929    1.7840    2.4047 P.3     1  UNL1       -0.1154
      2 C           0.4000    0.0703    2.8294 C.3     1  UNL1       -0.0447
      3 C           0.5376    1.8133    0.5955 C.3     1  UNL1       -0.0447
      4 C           2.7093    1.4069    2.2232 C.3     1  UNL1       -0.0447
      5 H           0.7332   -0.1360    3.8470 H       1  UNL1        0.0277
      6 H          -0.6817   -0.0069    2.8039 H       1  UNL1        0.0277
      7 H           0.8507   -0.6451    2.1401 H       1  UNL1        0.0277
      8 H          -0.5152    2.0101    0.4214 H       1  UNL1        0.0277
      9 H           1.1253    2.6071    0.1335 H       1  UNL1        0.0277
     10 H           0.8120    0.8580    0.1463 H       1  UNL1        0.0277
     11 H           3.0413    0.7896    3.0541 H       1  UNL1        0.0277
     12 H           2.8538    0.8480    1.2985 H       1  UNL1        0.0277
     13 H           3.3175    2.3064    2.1883 H       1  UNL1        0.0277
@<TRIPOS>BOND
     1     9     3    1
     2    10     3    1
     3     8     3    1
     4     3     1    1
     5    12     4    1
     6     7     2    1
     7    13     4    1
     8     4     1    1
     9     4    11    1
    10     1     2    1
    11     6     2    1
    12     2     5    1
