@<TRIPOS>MOLECULE
1
 13 12 0 0 0
SMALL
GASTEIGER

@<TRIPOS>ATOM
      1 P          -1.5418    4.7832    4.9327 P.3     1  UNL1       -0.1154
      2 C          -2.7739    3.9348    5.9934 C.3     1  UNL1       -0.0447
      3 C          -0.9514    6.0026    6.2004 C.3     1  UNL1       -0.0447
      4 C          -2.6633    5.9412    4.0402 C.3     1  UNL1       -0.0447
      5 H          -2.2591    3.4153    6.8003 H       1  UNL1        0.0277
      6 H          -3.2996    3.1991    5.3902 H       1  UNL1        0.0277
      7 H          -3.4795    4.6563    6.4077 H       1  UNL1        0.0277
      8 H          -0.3219    5.5128    6.9400 H       1  UNL1        0.0277
      9 H          -1.8158    6.4366    6.7050 H       1  UNL1        0.0277
     10 H          -0.3828    6.7986    5.7240 H       1  UNL1        0.0277
     11 H          -3.4498    5.3693    3.5572 H       1  UNL1        0.0277
     12 H          -2.1074    6.4748    3.2712 H       1  UNL1        0.0277
     13 H          -3.1009    6.6555    4.7379 H       1  UNL1        0.0277
@<TRIPOS>BOND
     1    12     4    1
     2    11     4    1
     3     4    13    1
     4     4     1    1
     5     1     2    1
     6     1     3    1
     7     6     2    1
     8    10     3    1
     9     2     7    1
    10     2     5    1
    11     3     9    1
    12     3     8    1
