@<TRIPOS>MOLECULE
1
 13 12 0 0 0
SMALL
GASTEIGER

@<TRIPOS>ATOM
      1 P           3.6629    2.7702    5.3019 P.3     1  UNL1       -0.1154
      2 C           4.5105    4.3497    5.7511 C.3     1  UNL1       -0.0447
      3 C           3.3415    2.2294    7.0362 C.3     1  UNL1       -0.0447
      4 C           5.1929    1.7945    4.9918 C.3     1  UNL1       -0.0447
      5 H           4.7817    4.8918    4.8472 H       1  UNL1        0.0277
      6 H           5.4126    4.1307    6.3236 H       1  UNL1        0.0277
      7 H           3.8454    4.9637    6.3547 H       1  UNL1        0.0277
      8 H           4.2438    2.3553    7.6356 H       1  UNL1        0.0277
      9 H           3.0463    1.1852    7.0407 H       1  UNL1        0.0277
     10 H           2.5418    2.8270    7.4700 H       1  UNL1        0.0277
     11 H           5.8219    2.3350    4.2882 H       1  UNL1        0.0277
     12 H           4.9412    0.8310    4.5629 H       1  UNL1        0.0277
     13 H           5.7362    1.6566    5.9270 H       1  UNL1        0.0277
@<TRIPOS>BOND
     1    11     4    1
     2    12     4    1
     3     5     2    1
     4     4     1    1
     5     4    13    1
     6     1     2    1
     7     1     3    1
     8     2     6    1
     9     2     7    1
    10     3     9    1
    11     3    10    1
    12     3     8    1
