@<TRIPOS>MOLECULE
1
 52 54 0 0 0
SMALL
GASTEIGER

@<TRIPOS>ATOM
      1 P          13.0249    2.8556    7.0157 P.3     1  UNL1       -0.0964
      2 C          11.6888    1.7014    7.7018 C.3     1  UNL1       -0.0200
      3 H          11.8619    1.7616    8.7857 H       1  UNL1        0.0349
      4 C          10.2800    2.2391    7.4313 C.3     1  UNL1       -0.0463
      5 H          10.2295    3.3016    7.6743 H       1  UNL1        0.0271
      6 H          10.0429    2.1401    6.3712 H       1  UNL1        0.0271
      7 C           9.2389    1.4758    8.2475 C.3     1  UNL1       -0.0525
      8 H           8.2443    1.8710    8.0290 H       1  UNL1        0.0265
      9 H           9.4278    1.6219    9.3131 H       1  UNL1        0.0265
     10 C           9.2863   -0.0158    7.9336 C.3     1  UNL1       -0.0530
     11 H           8.5767   -0.5551    8.5650 H       1  UNL1        0.0265
     12 H           8.9962   -0.1783    6.8927 H       1  UNL1        0.0265
     13 C          10.6968   -0.5512    8.1524 C.3     1  UNL1       -0.0525
     14 H          10.7383   -1.6112    7.8904 H       1  UNL1        0.0265
     15 H          10.9629   -0.4592    9.2085 H       1  UNL1        0.0265
     16 C          11.6973    0.2261    7.2956 C.3     1  UNL1       -0.0463
     17 H          12.6834   -0.2204    7.3990 H       1  UNL1        0.0271
     18 H          11.3846    0.1342    6.2552 H       1  UNL1        0.0271
     19 C          14.5933    2.3232    7.9315 C.3     1  UNL1       -0.0200
     20 H          14.5560    2.9911    8.8046 H       1  UNL1        0.0349
     21 C          15.8511    2.7164    7.1513 C.3     1  UNL1       -0.0463
     22 H          15.9973    2.0622    6.2925 H       1  UNL1        0.0271
     23 H          15.7427    3.7366    6.7771 H       1  UNL1        0.0271
     24 C          17.0867    2.6208    8.0440 C.3     1  UNL1       -0.0525
     25 H          17.9759    2.8846    7.4670 H       1  UNL1        0.0265
     26 H          17.0023    3.3311    8.8686 H       1  UNL1        0.0265
     27 C          17.2296    1.2102    8.6063 C.3     1  UNL1       -0.0530
     28 H          17.3836    0.5041    7.7865 H       1  UNL1        0.0265
     29 H          18.1008    1.1540    9.2625 H       1  UNL1        0.0265
     30 C          15.9722    0.8233    9.3769 C.3     1  UNL1       -0.0525
     31 H          15.8497    1.4994   10.2276 H       1  UNL1        0.0265
     32 H          16.0716   -0.1914    9.7701 H       1  UNL1        0.0265
     33 C          14.7359    0.9040    8.4790 C.3     1  UNL1       -0.0463
     34 H          14.8475    0.1817    7.6693 H       1  UNL1        0.0271
     35 H          13.8597    0.6290    9.0685 H       1  UNL1        0.0271
     36 C          13.3129    2.2872    5.2418 C.3     1  UNL1       -0.0200
     37 H          14.0404    3.0340    4.8949 H       1  UNL1        0.0349
     38 C          13.9000    0.8997    4.9649 C.3     1  UNL1       -0.0463
     39 H          13.1726    0.1200    5.1801 H       1  UNL1        0.0271
     40 H          14.7832    0.7062    5.5701 H       1  UNL1        0.0271
     41 C          14.2753    0.7978    3.4860 C.3     1  UNL1       -0.0525
     42 H          15.0061    1.5707    3.2369 H       1  UNL1        0.0265
     43 H          14.7353   -0.1743    3.2911 H       1  UNL1        0.0265
     44 C          13.0362    0.9709    2.6148 C.3     1  UNL1       -0.0530
     45 H          12.3305    0.1630    2.8255 H       1  UNL1        0.0265
     46 H          13.3077    0.9080    1.5589 H       1  UNL1        0.0265
     47 C          12.3778    2.3157    2.9049 C.3     1  UNL1       -0.0525
     48 H          11.4621    2.4172    2.3177 H       1  UNL1        0.0265
     49 H          13.0567    3.1154    2.6068 H       1  UNL1        0.0265
     50 C          12.0512    2.4515    4.3906 C.3     1  UNL1       -0.0463
     51 H          11.3226    1.6827    4.6555 H       1  UNL1        0.0271
     52 H          11.6021    3.4295    4.5829 H       1  UNL1        0.0271
@<TRIPOS>BOND
     1    46    44    1
     2    48    47    1
     3    49    47    1
     4    44    45    1
     5    44    47    1
     6    44    41    1
     7    47    50    1
     8    42    41    1
     9    43    41    1
    10    41    38    1
    11    50    52    1
    12    50    51    1
    13    50    36    1
    14    37    36    1
    15    38    39    1
    16    38    36    1
    17    38    40    1
    18    36     1    1
    19    18    16    1
    20    22    21    1
    21     6     4    1
    22    23    21    1
    23    12    10    1
    24     1     2    1
    25     1    19    1
    26    21    19    1
    27    21    24    1
    28    16    17    1
    29    16     2    1
    30    16    13    1
    31     4     5    1
    32     4     2    1
    33     4     7    1
    34    25    24    1
    35    34    33    1
    36     2     3    1
    37    28    27    1
    38    14    13    1
    39    19    33    1
    40    19    20    1
    41    10    13    1
    42    10     7    1
    43    10    11    1
    44     8     7    1
    45    24    27    1
    46    24    26    1
    47    13    15    1
    48     7     9    1
    49    33    35    1
    50    33    30    1
    51    27    29    1
    52    27    30    1
    53    30    32    1
    54    30    31    1
