@<TRIPOS>MOLECULE
1
 52 54 0 0 0
SMALL
GASTEIGER

@<TRIPOS>ATOM
      1 P          12.7510    5.4913    9.7041 P.3     1  UNL1       -0.0964
      2 C          11.4428    6.7169   10.2945 C.3     1  UNL1       -0.0200
      3 H          11.7346    7.6159    9.7325 H       1  UNL1        0.0349
      4 C          11.4352    7.0639   11.7845 C.3     1  UNL1       -0.0463
      5 H          11.0454    6.2240   12.3622 H       1  UNL1        0.0271
      6 H          12.4378    7.2924   12.1468 H       1  UNL1        0.0271
      7 C          10.5382    8.2771   12.0315 C.3     1  UNL1       -0.0525
      8 H          10.5475    8.5288   13.0950 H       1  UNL1        0.0265
      9 H          10.9303    9.1362   11.4818 H       1  UNL1        0.0265
     10 C           9.1119    7.9929   11.5749 C.3     1  UNL1       -0.0530
     11 H           8.4855    8.8730   11.7354 H       1  UNL1        0.0265
     12 H           8.6962    7.1753   12.1695 H       1  UNL1        0.0265
     13 C           9.1039    7.6044   10.1003 C.3     1  UNL1       -0.0525
     14 H           9.4476    8.4514    9.5031 H       1  UNL1        0.0265
     15 H           8.0865    7.3650    9.7828 H       1  UNL1        0.0265
     16 C          10.0116    6.4013    9.8536 C.3     1  UNL1       -0.0463
     17 H          10.0028    6.1523    8.7919 H       1  UNL1        0.0271
     18 H           9.6118    5.5506   10.4049 H       1  UNL1        0.0271
     19 C          12.6560    4.0018   10.8817 C.3     1  UNL1       -0.0200
     20 H          13.2390    3.2380   10.3453 H       1  UNL1        0.0349
     21 C          13.2349    4.1028   12.2957 C.3     1  UNL1       -0.0463
     22 H          14.2672    4.4501   12.2861 H       1  UNL1        0.0271
     23 H          12.6494    4.7974   12.8985 H       1  UNL1        0.0271
     24 C          13.2084    2.7238   12.9596 C.3     1  UNL1       -0.0525
     25 H          13.8387    2.0357   12.3895 H       1  UNL1        0.0265
     26 H          13.6256    2.7984   13.9666 H       1  UNL1        0.0265
     27 C          11.7903    2.1683   13.0254 C.3     1  UNL1       -0.0530
     28 H          11.1744    2.8167   13.6533 H       1  UNL1        0.0265
     29 H          11.7992    1.1753   13.4801 H       1  UNL1        0.0265
     30 C          11.1905    2.1001   11.6252 C.3     1  UNL1       -0.0525
     31 H          10.1610    1.7371   11.6790 H       1  UNL1        0.0265
     32 H          11.7652    1.3902   11.0241 H       1  UNL1        0.0265
     33 C          11.2225    3.4822   10.9766 C.3     1  UNL1       -0.0463
     34 H          10.7770    3.4542    9.9804 H       1  UNL1        0.0271
     35 H          10.6304    4.1565   11.5969 H       1  UNL1        0.0271
     36 C          14.2843    6.3399   10.3936 C.3     1  UNL1       -0.0200
     37 H          14.1406    6.4004   11.4782 H       1  UNL1        0.0349
     38 C          14.4998    7.7584    9.8687 C.3     1  UNL1       -0.0463
     39 H          14.6535    7.7267    8.7872 H       1  UNL1        0.0271
     40 H          13.6269    8.3831   10.0670 H       1  UNL1        0.0271
     41 C          15.7176    8.3960   10.5370 C.3     1  UNL1       -0.0525
     42 H          15.5399    8.4793   11.6132 H       1  UNL1        0.0265
     43 H          15.8599    9.4055   10.1451 H       1  UNL1        0.0265
     44 C          16.9716    7.5633   10.2958 C.3     1  UNL1       -0.0530
     45 H          17.1869    7.5342    9.2256 H       1  UNL1        0.0265
     46 H          17.8270    8.0192   10.7993 H       1  UNL1        0.0265
     47 C          16.7585    6.1421   10.8037 C.3     1  UNL1       -0.0525
     48 H          16.6055    6.1599   11.8868 H       1  UNL1        0.0265
     49 H          17.6456    5.5365   10.6031 H       1  UNL1        0.0265
     50 C          15.5444    5.5195   10.1200 C.3     1  UNL1       -0.0463
     51 H          15.4163    4.4900   10.4643 H       1  UNL1        0.0271
     52 H          15.7222    5.4941    9.0427 H       1  UNL1        0.0271
@<TRIPOS>BOND
     1    39    38    1
     2    17    16    1
     3    52    50    1
     4    45    44    1
     5    14    13    1
     6     1     2    1
     7     1    36    1
     8     1    19    1
     9     3     2    1
    10    15    13    1
    11    16    13    1
    12    16     2    1
    13    16    18    1
    14    38    40    1
    15    38    36    1
    16    38    41    1
    17    34    33    1
    18    13    10    1
    19    50    36    1
    20    50    51    1
    21    50    47    1
    22    43    41    1
    23     2     4    1
    24    44    41    1
    25    44    46    1
    26    44    47    1
    27    20    19    1
    28    36    37    1
    29    41    42    1
    30    49    47    1
    31    47    48    1
    32    19    33    1
    33    19    21    1
    34    33    35    1
    35    33    30    1
    36    32    30    1
    37     9     7    1
    38    10    11    1
    39    10     7    1
    40    10    12    1
    41    30    31    1
    42    30    27    1
    43     4     7    1
    44     4     6    1
    45     4     5    1
    46     7     8    1
    47    22    21    1
    48    21    23    1
    49    21    24    1
    50    25    24    1
    51    24    27    1
    52    24    26    1
    53    27    29    1
    54    27    28    1
