@<TRIPOS>MOLECULE
1
 15 14 0 0 0
SMALL
GASTEIGER

@<TRIPOS>ATOM
      1 P          10.9706    2.6114    4.2312 P.3     1  UNL1        0.0000
      2 C           9.4405    2.9612    4.1028 C.1     1  UNL1        0.0000
      3 SI          7.7252    2.9102    3.4380 Si      1  UNL1        0.0000
      4 C           6.7127    4.3612    4.1518 C.3     1  UNL1        0.0000
      5 H           5.6909    4.3515    3.7830 H       1  UNL1        0.0000
      6 H           7.1525    5.3151    3.8777 H       1  UNL1        0.0000
      7 H           6.6699    4.3142    5.2358 H       1  UNL1        0.0000
      8 C           6.8899    1.2652    3.9352 C.3     1  UNL1        0.0000
      9 H           5.8904    1.1780    3.5185 H       1  UNL1        0.0000
     10 H           6.8065    1.1842    5.0149 H       1  UNL1        0.0000
     11 H           7.4715    0.4166    3.5880 H       1  UNL1        0.0000
     12 C           7.7633    3.0659    1.5351 C.3     1  UNL1        0.0000
     13 H           6.7636    3.1206    1.1132 H       1  UNL1        0.0000
     14 H           8.2684    2.2187    1.0819 H       1  UNL1        0.0000
     15 H           8.3017    3.9602    1.2364 H       1  UNL1        0.0000
@<TRIPOS>BOND
     1    14    12    1
     2    13    12    1
     3    15    12    1
     4    12     3    1
     5     3     8    1
     6     3     2    1
     7     3     4    1
     8     9     8    1
     9    11     8    1
    10     5     4    1
    11     6     4    1
    12     8    10    1
    13     2     1    3
    14     4     7    1
