@<TRIPOS>MOLECULE
1
 15 14 0 0 0
SMALL
GASTEIGER

@<TRIPOS>ATOM
      1 P          15.5083    2.6127    5.2835 P.3     1  UNL1        0.0000
      2 C          17.0382    2.9632    5.4125 C.1     1  UNL1        0.0000
      3 SI         18.7534    2.9114    6.0778 Si      1  UNL1        0.0000
      4 C          19.7666    4.3628    5.3656 C.3     1  UNL1        0.0000
      5 H          20.7884    4.3522    5.7344 H       1  UNL1        0.0000
      6 H          19.3273    5.3166    5.6409 H       1  UNL1        0.0000
      7 H          19.8094    4.3171    4.2816 H       1  UNL1        0.0000
      8 C          19.5881    1.2665    5.5795 C.3     1  UNL1        0.0000
      9 H          20.5874    1.1782    5.9965 H       1  UNL1        0.0000
     10 H          19.6719    1.1863    4.4998 H       1  UNL1        0.0000
     11 H          19.0057    0.4181    5.9257 H       1  UNL1        0.0000
     12 C          18.7142    3.0656    7.9808 C.3     1  UNL1        0.0000
     13 H          19.7135    3.1199    8.4035 H       1  UNL1        0.0000
     14 H          18.2087    2.2181    8.4328 H       1  UNL1        0.0000
     15 H          18.1756    3.9597    8.2798 H       1  UNL1        0.0000
@<TRIPOS>BOND
     1     7     4    1
     2    10     8    1
     3     1     2    3
     4     4     6    1
     5     4     5    1
     6     4     3    1
     7     2     3    1
     8     8    11    1
     9     8     9    1
    10     8     3    1
    11     3    12    1
    12    12    15    1
    13    12    13    1
    14    12    14    1
