@<TRIPOS>MOLECULE
1
 13 12 0 0 0
SMALL
GASTEIGER

@<TRIPOS>ATOM
      1 P           7.8863    7.3278    0.4765 P.3     1  UNL1       -0.1154
      2 C           9.6086    6.7548    0.1406 C.3     1  UNL1       -0.0447
      3 H          10.0525    7.3418   -0.6641 H       1  UNL1        0.0277
      4 H           9.5773    5.7044   -0.1482 H       1  UNL1        0.0277
      5 H          10.2216    6.8512    1.0351 H       1  UNL1        0.0277
      6 C           7.2509    7.2810   -1.2555 C.3     1  UNL1       -0.0447
      7 H           7.9639    7.7513   -1.9335 H       1  UNL1        0.0277
      8 H           6.2982    7.8045   -1.3193 H       1  UNL1        0.0277
      9 H           7.1031    6.2410   -1.5471 H       1  UNL1        0.0277
     10 C           8.2259    9.1538    0.5819 C.3     1  UNL1       -0.0447
     11 H           8.7811    9.3732    1.4926 H       1  UNL1        0.0277
     12 H           7.2842    9.7000    0.6157 H       1  UNL1        0.0277
     13 H           8.8029    9.4912   -0.2787 H       1  UNL1        0.0277
@<TRIPOS>BOND
     1     7     6    1
     2     9     6    1
     3     8     6    1
     4     6     1    1
     5     3     2    1
     6    13    10    1
     7     4     2    1
     8     2     1    1
     9     2     5    1
    10     1    10    1
    11    10    12    1
    12    10    11    1
