@<TRIPOS>MOLECULE
1
 43 43 0 0 0
SMALL
GASTEIGER

@<TRIPOS>ATOM
      1 P           7.9780    2.3379    3.1765 P.3     1  UNL1        0.0000
      2 P           8.4043    1.3672    5.0660 P.3     1  UNL1        0.0000
      3 SI          9.2421    5.0152    3.7907 Si      1  UNL1        0.0000
      4 SI         11.0415    2.6505    2.2995 Si      1  UNL1        0.0000
      5 N           8.9938   -0.3997    2.8784 N.3     1  UNL1        0.0000
      6 H           8.8976   -0.4494    1.8726 H       1  UNL1        0.0000
      7 C           8.6226    0.7016    3.5066 C.3     1  UNL1        0.0000
      8 C           9.3076   -1.6436    3.5568 C.3     1  UNL1        0.0000
      9 H           9.4444   -1.3928    4.6152 H       1  UNL1        0.0000
     10 C           8.1451   -2.6241    3.4126 C.3     1  UNL1        0.0000
     11 H           7.2306   -2.1833    3.8021 H       1  UNL1        0.0000
     12 H           8.3529   -3.5370    3.9634 H       1  UNL1        0.0000
     13 H           7.9902   -2.8773    2.3654 H       1  UNL1        0.0000
     14 C          10.6008   -2.2183    2.9866 C.3     1  UNL1        0.0000
     15 H          10.4762   -2.4533    1.9313 H       1  UNL1        0.0000
     16 H          10.8674   -3.1303    3.5129 H       1  UNL1        0.0000
     17 H          11.4148   -1.5049    3.0923 H       1  UNL1        0.0000
     18 C           9.3401    3.4691    2.6413 C.3     1  UNL1        0.0000
     19 H           8.9871    3.8142    1.6620 H       1  UNL1        0.0000
     20 C           9.7632    6.5599    2.8055 C.3     1  UNL1        0.0000
     21 H           9.6641    7.4483    3.4199 H       1  UNL1        0.0000
     22 H           9.1416    6.6992    1.9267 H       1  UNL1        0.0000
     23 H          10.7939    6.5033    2.4756 H       1  UNL1        0.0000
     24 C           7.4386    5.2444    4.3632 C.3     1  UNL1        0.0000
     25 H           7.1080    4.3891    4.9495 H       1  UNL1        0.0000
     26 H           6.7638    5.3464    3.5160 H       1  UNL1        0.0000
     27 H           7.3214    6.1290    4.9822 H       1  UNL1        0.0000
     28 C          10.3413    4.7586    5.3256 C.3     1  UNL1        0.0000
     29 H          11.3960    4.7698    5.0716 H       1  UNL1        0.0000
     30 H          10.1212    3.8121    5.8114 H       1  UNL1        0.0000
     31 H          10.1716    5.5480    6.0506 H       1  UNL1        0.0000
     32 C          10.8065    1.4396    0.8325 C.3     1  UNL1        0.0000
     33 H          11.2013    0.4521    1.0510 H       1  UNL1        0.0000
     34 H          11.3207    1.8021   -0.0524 H       1  UNL1        0.0000
     35 H           9.7582    1.3325    0.5683 H       1  UNL1        0.0000
     36 C          12.2558    4.0131    1.7519 C.3     1  UNL1        0.0000
     37 H          13.1815    3.5717    1.3979 H       1  UNL1        0.0000
     38 H          12.5046    4.6821    2.5684 H       1  UNL1        0.0000
     39 H          11.8491    4.6118    0.9439 H       1  UNL1        0.0000
     40 C          11.8338    1.7427    3.7780 C.3     1  UNL1        0.0000
     41 H          11.2203    0.9277    4.1468 H       1  UNL1        0.0000
     42 H          12.0082    2.4171    4.6088 H       1  UNL1        0.0000
     43 H          12.7951    1.3290    3.4860 H       1  UNL1        0.0000
@<TRIPOS>BOND
     1    34    32    1
     2    35    32    1
     3    32    33    1
     4    32     4    1
     5    39    36    1
     6    37    36    1
     7    19    18    1
     8    36     4    1
     9    36    38    1
    10     6     5    1
    11    22    20    1
    12    15    14    1
    13     4    18    1
    14     4    40    1
    15    13    10    1
    16    23    20    1
    17    18     1    1
    18    18     3    1
    19    20    21    1
    20    20     3    1
    21     5     7    1
    22     5     8    1
    23    14    17    1
    24    14    16    1
    25    14     8    1
    26     1     7    1
    27     1     2    1
    28    10     8    1
    29    10    11    1
    30    10    12    1
    31    43    40    1
    32     7     2    1
    33    26    24    1
    34     8     9    1
    35    40    41    1
    36    40    42    1
    37     3    24    1
    38     3    28    1
    39    24    25    1
    40    24    27    1
    41    29    28    1
    42    28    30    1
    43    28    31    1
