@<TRIPOS>MOLECULE
1
 50 51 0 0 0
SMALL
GASTEIGER

@<TRIPOS>ATOM
      1 P           4.4319    4.7148   11.9173 P.3     1  UNL1        0.0000
      2 O           0.3132    4.7935   17.9125 O.3     1  UNL1        0.0000
      3 O          -0.7335    2.8164   16.6548 O.3     1  UNL1        0.0000
      4 O           1.0235    2.4166   18.7369 O.3     1  UNL1        0.0000
      5 N           3.1183    4.4417   12.8921 N.3     1  UNL1        0.0000
      6 H           2.2631    4.2998   12.3550 H       1  UNL1        0.0000
      7 SI          0.6361    3.2830   17.4198 Si      1  UNL1        0.0000
      8 C           5.3815    3.1476   11.9293 C.ar    1  UNL1        0.0000
      9 C           4.9550    2.1815   11.0227 C.ar    1  UNL1        0.0000
     10 H           4.1364    2.4208   10.3526 H       1  UNL1        0.0000
     11 C           5.5568    0.9373   10.9957 C.ar    1  UNL1        0.0000
     12 H           5.2231    0.1897   10.2912 H       1  UNL1        0.0000
     13 C           6.5873    0.6501   11.8775 C.ar    1  UNL1        0.0000
     14 H           7.0626   -0.3196   11.8565 H       1  UNL1        0.0000
     15 C           7.0027    1.6034   12.7924 C.ar    1  UNL1        0.0000
     16 H           7.7977    1.3749   13.4872 H       1  UNL1        0.0000
     17 C           6.4000    2.8494   12.8253 C.ar    1  UNL1        0.0000
     18 H           6.7220    3.5879   13.5460 H       1  UNL1        0.0000
     19 C           5.4606    5.8627   12.8717 C.ar    1  UNL1        0.0000
     20 C           6.8056    6.0153   12.5490 C.ar    1  UNL1        0.0000
     21 H           7.2398    5.3958   11.7743 H       1  UNL1        0.0000
     22 C           7.5786    6.9434   13.2213 C.ar    1  UNL1        0.0000
     23 H           8.6241    7.0588   12.9727 H       1  UNL1        0.0000
     24 C           7.0098    7.7287   14.2121 C.ar    1  UNL1        0.0000
     25 H           7.6145    8.4556   14.7342 H       1  UNL1        0.0000
     26 C           5.6676    7.5883   14.5254 C.ar    1  UNL1        0.0000
     27 H           5.2250    8.2094   15.2899 H       1  UNL1        0.0000
     28 C           4.8899    6.6617   13.8544 C.ar    1  UNL1        0.0000
     29 H           3.8365    6.5563   14.0649 H       1  UNL1        0.0000
     30 C           3.2246    3.5892   14.0705 C.3     1  UNL1        0.0000
     31 H           4.1706    3.8246   14.5687 H       1  UNL1        0.0000
     32 H           3.2383    2.5233   13.8055 H       1  UNL1        0.0000
     33 C           2.0570    3.8697   15.0132 C.3     1  UNL1        0.0000
     34 H           1.1248    3.6274   14.4998 H       1  UNL1        0.0000
     35 H           2.0368    4.9359   15.2390 H       1  UNL1        0.0000
     36 C           2.1661    3.0698   16.3087 C.3     1  UNL1        0.0000
     37 H           3.0701    3.3715   16.8359 H       1  UNL1        0.0000
     38 H           2.2961    2.0155   16.0612 H       1  UNL1        0.0000
     39 C          -0.2604    5.8549   17.1921 C.3     1  UNL1        0.0000
     40 H           0.5048    6.3707   16.6087 H       1  UNL1        0.0000
     41 H          -0.6915    6.5486   17.9148 H       1  UNL1        0.0000
     42 H          -1.0388    5.4939   16.5207 H       1  UNL1        0.0000
     43 C          -1.0066    1.6010   16.0089 C.3     1  UNL1        0.0000
     44 H          -0.4080    1.5050   15.1005 H       1  UNL1        0.0000
     45 H          -2.0648    1.5982   15.7457 H       1  UNL1        0.0000
     46 H          -0.7908    0.7533   16.6625 H       1  UNL1        0.0000
     47 C           0.3501    2.3689   19.9691 C.3     1  UNL1        0.0000
     48 H           0.2322    3.3733   20.3763 H       1  UNL1        0.0000
     49 H           0.9500    1.7628   20.6484 H       1  UNL1        0.0000
     50 H          -0.6377    1.9183   19.8514 H       1  UNL1        0.0000
@<TRIPOS>BOND
     1    12    11    1
     2    10     9    1
     3    11     9   ar
     4    11    13   ar
     5     9     8   ar
     6    21    20    1
     7    14    13    1
     8    13    15   ar
     9     1     8    1
    10     1    19    1
    11     1     5    1
    12     8    17   ar
    13     6     5    1
    14    20    19   ar
    15    20    22   ar
    16    15    17   ar
    17    15    16    1
    18    17    18    1
    19    19    28   ar
    20     5    30    1
    21    23    22    1
    22    22    24   ar
    23    32    30    1
    24    28    29    1
    25    28    26   ar
    26    30    31    1
    27    30    33    1
    28    24    26   ar
    29    24    25    1
    30    34    33    1
    31    26    27    1
    32    33    35    1
    33    33    36    1
    34    44    43    1
    35    45    43    1
    36    43     3    1
    37    43    46    1
    38    38    36    1
    39    36    37    1
    40    36     7    1
    41    42    39    1
    42    40    39    1
    43     3     7    1
    44    39     2    1
    45    39    41    1
    46     7     2    1
    47     7     4    1
    48     4    47    1
    49    50    47    1
    50    47    48    1
    51    47    49    1
