@<TRIPOS>MOLECULE
1
 13 12 0 0 0
SMALL
GASTEIGER

@<TRIPOS>ATOM
      1 P           0.3529    5.5614   21.1603 P.3     1  UNL1       -0.1154
      2 C          -0.9230    5.8412   22.4518 C.3     1  UNL1       -0.0447
      3 C           0.0407    3.7917   20.7849 C.3     1  UNL1       -0.0447
      4 C          -0.4715    6.3395   19.7142 C.3     1  UNL1       -0.0447
      5 H          -1.8977    5.4846   22.1192 H       1  UNL1        0.0277
      6 H          -0.9825    6.9043   22.6778 H       1  UNL1        0.0277
      7 H          -0.6319    5.3110   23.3570 H       1  UNL1        0.0277
      8 H           0.3502    3.1910   21.6386 H       1  UNL1        0.0277
      9 H           0.6435    3.5026   19.9255 H       1  UNL1        0.0277
     10 H          -1.0140    3.6151   20.5723 H       1  UNL1        0.0277
     11 H           0.0994    6.1093   18.8163 H       1  UNL1        0.0277
     12 H          -0.4879    7.4203   19.8436 H       1  UNL1        0.0277
     13 H          -1.4909    5.9710   19.6014 H       1  UNL1        0.0277
@<TRIPOS>BOND
     1    11     4    1
     2    13     4    1
     3     4    12    1
     4     4     1    1
     5     9     3    1
     6    10     3    1
     7     3     1    1
     8     3     8    1
     9     1     2    1
    10     5     2    1
    11     2     6    1
    12     2     7    1
