@<TRIPOS>MOLECULE
1
 13 12 0 0 0
SMALL
GASTEIGER

@<TRIPOS>ATOM
      1 P           2.5299    8.6452   21.9445 P.3     1  UNL1       -0.1154
      2 C           3.5566    9.3192   23.3073 C.3     1  UNL1       -0.0447
      3 C           0.9293    9.4781   22.3302 C.3     1  UNL1       -0.0447
      4 C           3.1139    9.7095   20.5673 C.3     1  UNL1       -0.0447
      5 H           4.5953    9.0542   23.1170 H       1  UNL1        0.0277
      6 H           3.2488    8.8666   24.2479 H       1  UNL1        0.0277
      7 H           3.4575   10.4025   23.3711 H       1  UNL1        0.0277
      8 H           0.5261    9.0609   23.2513 H       1  UNL1        0.0277
      9 H           0.2197    9.2982   21.5244 H       1  UNL1        0.0277
     10 H           1.0712   10.5515   22.4521 H       1  UNL1        0.0277
     11 H           2.5071    9.5274   19.6822 H       1  UNL1        0.0277
     12 H           4.1451    9.4417   20.3427 H       1  UNL1        0.0277
     13 H           3.0588   10.7635   20.8382 H       1  UNL1        0.0277
@<TRIPOS>BOND
     1    11     4    1
     2    12     4    1
     3     4    13    1
     4     4     1    1
     5     9     3    1
     6     1     3    1
     7     1     2    1
     8     3    10    1
     9     3     8    1
    10     5     2    1
    11     2     7    1
    12     2     6    1
