@<TRIPOS>MOLECULE
1
 13 12 0 0 0
SMALL
GASTEIGER

@<TRIPOS>ATOM
      1 P           3.8979    0.6073    3.6122 P.3     1  UNL1       -0.1154
      2 C           4.4883    0.8148    1.8784 C.3     1  UNL1       -0.0447
      3 C           3.7223    2.4050    4.0572 C.3     1  UNL1       -0.0447
      4 C           5.5667    0.2988    4.3513 C.3     1  UNL1       -0.0447
      5 H           5.3480    1.4838    1.8455 H       1  UNL1        0.0277
      6 H           4.7661   -0.1557    1.4761 H       1  UNL1        0.0277
      7 H           3.6881    1.2274    1.2711 H       1  UNL1        0.0277
      8 H           4.4028    2.6693    4.8633 H       1  UNL1        0.0277
      9 H           3.9464    3.0274    3.1937 H       1  UNL1        0.0277
     10 H           2.7041    2.6069    4.3783 H       1  UNL1        0.0277
     11 H           5.4950    0.2050    5.4329 H       1  UNL1        0.0277
     12 H           5.9620   -0.6312    3.9497 H       1  UNL1        0.0277
     13 H           6.2476    1.1138    4.1069 H       1  UNL1        0.0277
@<TRIPOS>BOND
     1     7     2    1
     2     6     2    1
     3     5     2    1
     4     2     1    1
     5     9     3    1
     6     1     3    1
     7     1     4    1
     8    12     4    1
     9     3    10    1
    10     3     8    1
    11    13     4    1
    12     4    11    1
