@<TRIPOS>MOLECULE
1
 13 12 0 0 0
SMALL
GASTEIGER

@<TRIPOS>ATOM
      1 P           2.3870   -0.3415    6.5910 P.3     1  UNL1       -0.1154
      2 C           3.0100    1.2907    7.2079 C.3     1  UNL1       -0.0447
      3 C           3.6049   -1.4001    7.4912 C.3     1  UNL1       -0.0447
      4 C           0.9797   -0.4978    7.7667 C.3     1  UNL1       -0.0447
      5 H           3.0652    1.2841    8.2961 H       1  UNL1        0.0277
      6 H           3.9994    1.4926    6.8056 H       1  UNL1        0.0277
      7 H           2.3396    2.0871    6.8938 H       1  UNL1        0.0277
      8 H           3.3368   -2.4458    7.3686 H       1  UNL1        0.0277
      9 H           4.6039   -1.2536    7.0843 H       1  UNL1        0.0277
     10 H           3.6132   -1.1514    8.5521 H       1  UNL1        0.0277
     11 H           0.2006    0.2059    7.4861 H       1  UNL1        0.0277
     12 H           0.5708   -1.5013    7.7123 H       1  UNL1        0.0277
     13 H           1.3035   -0.2890    8.7861 H       1  UNL1        0.0277
@<TRIPOS>BOND
     1     1     2    1
     2     1     3    1
     3     1     4    1
     4     6     2    1
     5     7     2    1
     6     9     3    1
     7     2     5    1
     8     8     3    1
     9    11     4    1
    10     3    10    1
    11    12     4    1
    12     4    13    1
