@<TRIPOS>MOLECULE
1
 13 12 0 0 0
SMALL
GASTEIGER

@<TRIPOS>ATOM
      1 P           3.6984   -1.3236   -0.1405 P.3     1  UNL1       -0.1154
      2 C           5.2393   -2.3147    0.1172 C.3     1  UNL1       -0.0447
      3 H           5.3250   -2.6686    1.1424 H       1  UNL1        0.0277
      4 H           6.1051   -1.6966   -0.1133 H       1  UNL1        0.0277
      5 H           5.2268   -3.1700   -0.5594 H       1  UNL1        0.0277
      6 C           3.9802   -1.0394   -1.9340 C.3     1  UNL1       -0.0447
      7 H           3.9887   -2.0058   -2.4389 H       1  UNL1        0.0277
      8 H           4.9378   -0.5492   -2.0920 H       1  UNL1        0.0277
      9 H           3.1823   -0.4221   -2.3376 H       1  UNL1        0.0277
     10 C           2.5271   -2.7287   -0.3549 C.3     1  UNL1       -0.0447
     11 H           2.9305   -3.4270   -1.0882 H       1  UNL1        0.0277
     12 H           1.5870   -2.3221   -0.7218 H       1  UNL1        0.0277
     13 H           2.3641   -3.2612    0.5777 H       1  UNL1        0.0277
@<TRIPOS>BOND
     1     7     6    1
     2     9     6    1
     3     8     6    1
     4     6     1    1
     5    11    10    1
     6    12    10    1
     7     5     2    1
     8    10     1    1
     9    10    13    1
    10     1     2    1
    11     4     2    1
    12     2     3    1
