@<TRIPOS>MOLECULE
1
 13 12 0 0 0
SMALL
GASTEIGER

@<TRIPOS>ATOM
      1 P           1.3882   -0.2644    2.2397 P.3     1  UNL1       -0.1154
      2 C           1.4325   -0.3667    4.0783 C.3     1  UNL1       -0.0447
      3 H           0.4411   -0.5839    4.4772 H       1  UNL1        0.0277
      4 H           1.7907    0.5760    4.4851 H       1  UNL1        0.0277
      5 H           2.1201   -1.1606    4.3686 H       1  UNL1        0.0277
      6 C          -0.0884    0.8134    2.0432 C.3     1  UNL1       -0.0447
      7 H          -0.4361    0.7048    1.0171 H       1  UNL1        0.0277
      8 H           0.1568    1.8556    2.2198 H       1  UNL1        0.0277
      9 H          -0.8703    0.5013    2.7366 H       1  UNL1        0.0277
     10 C           0.4618   -1.8276    1.9499 C.3     1  UNL1       -0.0447
     11 H          -0.4441   -1.8089    2.5569 H       1  UNL1        0.0277
     12 H           1.0480   -2.7005    2.2263 H       1  UNL1        0.0277
     13 H           0.1878   -1.8809    0.8992 H       1  UNL1        0.0277
@<TRIPOS>BOND
     1    13    10    1
     2     7     6    1
     3    10    12    1
     4    10     1    1
     5    10    11    1
     6     6     8    1
     7     6     1    1
     8     6     9    1
     9     1     2    1
    10     2     5    1
    11     2     3    1
    12     2     4    1
