@<TRIPOS>MOLECULE
1
 13 12 0 0 0
SMALL
GASTEIGER

@<TRIPOS>ATOM
      1 P           2.8977    2.5041    1.5047 P.3     1  UNL1       -0.1154
      2 C           4.2992    3.6782    1.3136 C.3     1  UNL1       -0.0447
      3 H           4.6020    3.7363    0.2713 H       1  UNL1        0.0277
      4 H           5.1445    3.3379    1.9060 H       1  UNL1        0.0277
      5 H           3.9879    4.6639    1.6618 H       1  UNL1        0.0277
      6 C           2.3856    3.1303    3.1677 C.3     1  UNL1       -0.0447
      7 H           3.2282    2.9992    3.8467 H       1  UNL1        0.0277
      8 H           1.5352    2.5850    3.5668 H       1  UNL1        0.0277
      9 H           2.1369    4.1902    3.1071 H       1  UNL1        0.0277
     10 C           1.7176    3.3883    0.4144 C.3     1  UNL1       -0.0447
     11 H           1.5911    4.4157    0.7574 H       1  UNL1        0.0277
     12 H           0.7610    2.8773    0.3701 H       1  UNL1        0.0277
     13 H           2.1407    3.3876   -0.5878 H       1  UNL1        0.0277
@<TRIPOS>BOND
     1    13    10    1
     2     3     2    1
     3    12    10    1
     4    10    11    1
     5    10     1    1
     6     2     1    1
     7     2     5    1
     8     2     4    1
     9     1     6    1
    10     9     6    1
    11     6     8    1
    12     6     7    1
