@<TRIPOS>MOLECULE
1
 53 55 0 0 0
SMALL
GASTEIGER

@<TRIPOS>ATOM
      1 P           2.0680    2.6021    2.0350 P.3     1  UNL1        0.0000
      2 SI          1.3601    5.3680    3.1374 Si      1  UNL1        0.0000
      3 SI          2.5897    3.0873    5.1312 Si      1  UNL1        0.0000
      4 O           0.7755    2.7958    1.0635 O.3     1  UNL1        0.0000
      5 C          -0.2836    1.8371    1.2380 C.3     1  UNL1        0.0000
      6 H          -0.6292    1.5913    0.2234 H       1  UNL1        0.0000
      7 C           0.3260    0.6313    1.8887 C.ar    1  UNL1        0.0000
      8 C           1.6097    0.8723    2.3727 C.ar    1  UNL1        0.0000
      9 C           2.3706   -0.1703    2.8737 C.ar    1  UNL1        0.0000
     10 H           3.3911    0.0004    3.1813 H       1  UNL1        0.0000
     11 C           1.8122   -1.4350    2.9510 C.ar    1  UNL1        0.0000
     12 H           2.3966   -2.2558    3.3390 H       1  UNL1        0.0000
     13 C           0.5131   -1.6597    2.5193 C.ar    1  UNL1        0.0000
     14 H           0.0905   -2.6510    2.5838 H       1  UNL1        0.0000
     15 C          -0.2355   -0.6299    1.9718 C.ar    1  UNL1        0.0000
     16 H          -1.2337   -0.8081    1.5995 H       1  UNL1        0.0000
     17 C           1.5627    3.4888    3.5602 C.3     1  UNL1        0.0000
     18 H           0.5486    3.1183    3.7479 H       1  UNL1        0.0000
     19 C          -0.2948    5.8912    3.9360 C.3     1  UNL1        0.0000
     20 H          -0.4570    6.9570    3.8159 H       1  UNL1        0.0000
     21 H          -0.3126    5.6757    4.9990 H       1  UNL1        0.0000
     22 H          -1.1380    5.3781    3.4839 H       1  UNL1        0.0000
     23 C           1.2861    5.7495    1.2744 C.3     1  UNL1        0.0000
     24 H           0.4186    5.3051    0.7996 H       1  UNL1        0.0000
     25 H           2.1690    5.3669    0.7675 H       1  UNL1        0.0000
     26 H           1.2454    6.8216    1.1032 H       1  UNL1        0.0000
     27 C           2.7676    6.4482    3.8385 C.3     1  UNL1        0.0000
     28 H           3.7320    6.1973    3.4132 H       1  UNL1        0.0000
     29 H           2.8550    6.3776    4.9159 H       1  UNL1        0.0000
     30 H           2.5704    7.4882    3.5979 H       1  UNL1        0.0000
     31 C           2.4172    1.2665    5.6968 C.3     1  UNL1        0.0000
     32 H           3.2477    0.6535    5.3653 H       1  UNL1        0.0000
     33 H           1.5041    0.8047    5.3338 H       1  UNL1        0.0000
     34 H           2.3971    1.2172    6.7816 H       1  UNL1        0.0000
     35 C           4.4230    3.5324    4.8657 C.3     1  UNL1        0.0000
     36 H           5.0780    2.8008    5.3290 H       1  UNL1        0.0000
     37 H           4.6652    4.4993    5.2934 H       1  UNL1        0.0000
     38 H           4.6680    3.5701    3.8062 H       1  UNL1        0.0000
     39 C           1.8290    4.0831    6.5734 C.3     1  UNL1        0.0000
     40 H           0.8161    3.7530    6.7836 H       1  UNL1        0.0000
     41 H           1.7912    5.1484    6.3813 H       1  UNL1        0.0000
     42 H           2.4115    3.9335    7.4768 H       1  UNL1        0.0000
     43 C          -1.4327    2.4585    2.0022 C.ar    1  UNL1        0.0000
     44 C          -2.1499    3.4848    1.3995 C.ar    1  UNL1        0.0000
     45 H          -1.8917    3.7909    0.3964 H       1  UNL1        0.0000
     46 C          -3.1786    4.1135    2.0771 C.ar    1  UNL1        0.0000
     47 H          -3.7277    4.9116    1.6002 H       1  UNL1        0.0000
     48 C          -3.5037    3.7188    3.3646 C.ar    1  UNL1        0.0000
     49 H          -4.3070    4.2080    3.8947 H       1  UNL1        0.0000
     50 C          -2.7939    2.6962    3.9697 C.ar    1  UNL1        0.0000
     51 H          -3.0427    2.3845    4.9732 H       1  UNL1        0.0000
     52 C          -1.7605    2.0694    3.2940 C.ar    1  UNL1        0.0000
     53 H          -1.2131    1.2702    3.7736 H       1  UNL1        0.0000
@<TRIPOS>BOND
     1     6     5    1
     2    45    44    1
     3    25    23    1
     4    24    23    1
     5     4     5    1
     6     4     1    1
     7    26    23    1
     8     5     7    1
     9     5    43    1
    10    23     2    1
    11    44    43   ar
    12    44    46   ar
    13    16    15    1
    14    47    46    1
    15     7    15   ar
    16     7     8   ar
    17    15    13   ar
    18    43    52   ar
    19     1     8    1
    20     1    17    1
    21    46    48   ar
    22     8     9   ar
    23    13    14    1
    24    13    11   ar
    25     9    11   ar
    26     9    10    1
    27    11    12    1
    28     2    17    1
    29     2    27    1
    30     2    19    1
    31    52    53    1
    32    52    50   ar
    33    48    49    1
    34    48    50   ar
    35    28    27    1
    36    22    19    1
    37    17    18    1
    38    17     3    1
    39    30    27    1
    40    38    35    1
    41    20    19    1
    42    27    29    1
    43    19    21    1
    44    50    51    1
    45    35     3    1
    46    35    37    1
    47    35    36    1
    48     3    31    1
    49     3    39    1
    50    33    31    1
    51    32    31    1
    52    31    34    1
    53    41    39    1
    54    39    40    1
    55    39    42    1
