@<TRIPOS>MOLECULE
1
 47 48 0 0 0
SMALL
GASTEIGER

@<TRIPOS>ATOM
      1 P           2.3115    2.9023    3.1303 P.3     1  UNL1        0.0000
      2 SI          4.0759    5.3631    3.3907 Si      1  UNL1        0.0000
      3 SI          4.6702    2.5616    5.0920 Si      1  UNL1        0.0000
      4 N           1.2131    2.1302    4.1915 N.3     1  UNL1        0.0000
      5 C           0.6011    3.3334    3.6169 C.3     1  UNL1        0.0000
      6 H          -0.1292    3.1690    2.8187 H       1  UNL1        0.0000
      7 C           0.2371    4.4247    4.5353 C.ar    1  UNL1        0.0000
      8 C          -0.4273    5.5465    4.0436 C.ar    1  UNL1        0.0000
      9 H          -0.6839    5.5937    2.9947 H       1  UNL1        0.0000
     10 C          -0.7568    6.5916    4.8851 C.ar    1  UNL1        0.0000
     11 H          -1.2703    7.4562    4.4910 H       1  UNL1        0.0000
     12 C          -0.4303    6.5324    6.2306 C.ar    1  UNL1        0.0000
     13 H          -0.6848    7.3518    6.8861 H       1  UNL1        0.0000
     14 C           0.2097    5.4120    6.7322 C.ar    1  UNL1        0.0000
     15 H           0.4496    5.3523    7.7838 H       1  UNL1        0.0000
     16 C           0.5392    4.3630    5.8930 C.ar    1  UNL1        0.0000
     17 H           1.0061    3.4722    6.2859 H       1  UNL1        0.0000
     18 C           0.5527    0.8736    3.9362 C.3     1  UNL1        0.0000
     19 H          -0.3312    0.8158    4.5755 H       1  UNL1        0.0000
     20 H           1.2220    0.0528    4.1910 H       1  UNL1        0.0000
     21 H           0.2308    0.7556    2.8915 H       1  UNL1        0.0000
     22 C           3.4255    3.7787    4.2649 C.3     1  UNL1        0.0000
     23 H           2.7701    4.1320    5.0652 H       1  UNL1        0.0000
     24 C           5.4047    5.0329    2.0646 C.3     1  UNL1        0.0000
     25 H           5.2056    4.1176    1.5138 H       1  UNL1        0.0000
     26 H           6.3965    4.9526    2.4951 H       1  UNL1        0.0000
     27 H           5.4290    5.8459    1.3449 H       1  UNL1        0.0000
     28 C           4.7765    6.4941    4.7550 C.3     1  UNL1        0.0000
     29 H           5.5960    6.0220    5.2858 H       1  UNL1        0.0000
     30 H           4.0160    6.7518    5.4850 H       1  UNL1        0.0000
     31 H           5.1499    7.4196    4.3311 H       1  UNL1        0.0000
     32 C           2.5785    6.2179    2.5747 C.3     1  UNL1        0.0000
     33 H           1.9983    5.5046    1.9919 H       1  UNL1        0.0000
     34 H           2.8841    7.0164    1.9056 H       1  UNL1        0.0000
     35 H           1.9137    6.6477    3.3184 H       1  UNL1        0.0000
     36 C           4.5693    2.9206    6.9646 C.3     1  UNL1        0.0000
     37 H           3.5804    2.7124    7.3610 H       1  UNL1        0.0000
     38 H           4.7963    3.9603    7.1781 H       1  UNL1        0.0000
     39 H           5.2771    2.3111    7.5165 H       1  UNL1        0.0000
     40 C           4.1582    0.7576    4.7624 C.3     1  UNL1        0.0000
     41 H           3.9630    0.5957    3.7036 H       1  UNL1        0.0000
     42 H           3.2557    0.5036    5.3090 H       1  UNL1        0.0000
     43 H           4.9337    0.0597    5.0638 H       1  UNL1        0.0000
     44 C           6.4692    2.8055    4.5158 C.3     1  UNL1        0.0000
     45 H           6.8102    3.8216    4.6810 H       1  UNL1        0.0000
     46 H           6.6015    2.5746    3.4651 H       1  UNL1        0.0000
     47 H           7.1246    2.1469    5.0771 H       1  UNL1        0.0000
@<TRIPOS>BOND
     1    27    24    1
     2    25    24    1
     3    34    32    1
     4    33    32    1
     5    24    26    1
     6    24     2    1
     7    32    35    1
     8    32     2    1
     9     6     5    1
    10    21    18    1
    11     9     8    1
    12     1     5    1
    13     1     4    1
    14     1    22    1
    15     2    22    1
    16     2    28    1
    17    46    44    1
    18     5     4    1
    19     5     7    1
    20    41    40    1
    21    18    20    1
    22    18     4    1
    23    18    19    1
    24     8     7   ar
    25     8    10   ar
    26    22    23    1
    27    22     3    1
    28    31    28    1
    29    11    10    1
    30    44    45    1
    31    44    47    1
    32    44     3    1
    33     7    16   ar
    34    28    29    1
    35    28    30    1
    36    40    43    1
    37    40     3    1
    38    40    42    1
    39    10    12   ar
    40     3    36    1
    41    16    17    1
    42    16    14   ar
    43    12    14   ar
    44    12    13    1
    45    14    15    1
    46    36    38    1
    47    36    37    1
    48    36    39    1
