@<TRIPOS>MOLECULE
1
 46 46 0 0 0
SMALL
GASTEIGER

@<TRIPOS>ATOM
      1 P           8.9747    4.4042    4.3177 P.3     1  UNL1        0.0000
      2 H           8.7063    3.4218    5.2995 H       1  UNL1        0.0000
      3 SI         10.1670    4.9673    7.0801 Si      1  UNL1        0.0000
      4 SI         11.0975    6.6246    4.3589 Si      1  UNL1        0.0000
      5 O          10.2918    3.7517    3.6374 O.2     1  UNL1        0.0000
      6 C          10.1461    2.7154    2.7282 C.2     1  UNL1        0.0000
      7 C           9.3186    1.7009    2.9590 C.2     1  UNL1        0.0000
      8 H           8.7317    1.6528    3.8620 H       1  UNL1        0.0000
      9 H           9.2442    0.8721    2.2808 H       1  UNL1        0.0000
     10 C          10.9887    2.8422    1.5300 C.ar    1  UNL1        0.0000
     11 C          10.5613    2.3312    0.3055 C.ar    1  UNL1        0.0000
     12 H           9.6017    1.8424    0.2349 H       1  UNL1        0.0000
     13 C          11.3442    2.4789   -0.8231 C.ar    1  UNL1        0.0000
     14 H          10.9992    2.0875   -1.7685 H       1  UNL1        0.0000
     15 C          12.5612    3.1370   -0.7482 C.ar    1  UNL1        0.0000
     16 H          13.1680    3.2549   -1.6335 H       1  UNL1        0.0000
     17 C          12.9920    3.6490    0.4637 C.ar    1  UNL1        0.0000
     18 H          13.9383    4.1655    0.5282 H       1  UNL1        0.0000
     19 C          12.2112    3.5062    1.5956 C.ar    1  UNL1        0.0000
     20 H          12.5477    3.9038    2.5399 H       1  UNL1        0.0000
     21 C           9.7399    5.6792    5.3455 C.3     1  UNL1        0.0000
     22 H           8.9283    6.3961    5.5041 H       1  UNL1        0.0000
     23 C           8.5023    4.6390    7.9599 C.3     1  UNL1        0.0000
     24 H           7.9977    5.5723    8.1936 H       1  UNL1        0.0000
     25 H           8.6469    4.1066    8.8951 H       1  UNL1        0.0000
     26 H           7.8229    4.0507    7.3493 H       1  UNL1        0.0000
     27 C          11.1206    6.2432    8.1235 C.3     1  UNL1        0.0000
     28 H          10.5588    7.1642    8.2363 H       1  UNL1        0.0000
     29 H          12.0833    6.4919    7.6925 H       1  UNL1        0.0000
     30 H          11.2984    5.8477    9.1177 H       1  UNL1        0.0000
     31 C          11.1852    3.3614    6.9272 C.3     1  UNL1        0.0000
     32 H          10.9039    2.7919    6.0462 H       1  UNL1        0.0000
     33 H          11.0364    2.7225    7.7926 H       1  UNL1        0.0000
     34 H          12.2479    3.5697    6.8574 H       1  UNL1        0.0000
     35 C          10.7635    6.7324    2.4862 C.3     1  UNL1        0.0000
     36 H           9.7612    7.0970    2.2784 H       1  UNL1        0.0000
     37 H          10.8747    5.7725    1.9935 H       1  UNL1        0.0000
     38 H          11.4612    7.4203    2.0164 H       1  UNL1        0.0000
     39 C          12.8001    5.8145    4.6617 C.3     1  UNL1        0.0000
     40 H          12.7375    4.7318    4.6621 H       1  UNL1        0.0000
     41 H          13.2168    6.1179    5.6162 H       1  UNL1        0.0000
     42 H          13.5065    6.1109    3.8925 H       1  UNL1        0.0000
     43 C          11.1019    8.4086    5.0341 C.3     1  UNL1        0.0000
     44 H          10.1643    8.9141    4.8251 H       1  UNL1        0.0000
     45 H          11.8933    8.9869    4.5698 H       1  UNL1        0.0000
     46 H          11.2601    8.4387    6.1062 H       1  UNL1        0.0000
@<TRIPOS>BOND
     1    14    13    1
     2    16    15    1
     3    13    15   ar
     4    13    11   ar
     5    15    17   ar
     6    12    11    1
     7    11    10   ar
     8    17    18    1
     9    17    19   ar
    10    10    19   ar
    11    10     6    1
    12    19    20    1
    13    37    35    1
    14    38    35    1
    15    36    35    1
    16     9     7    1
    17    35     4    1
    18     6     7    2
    19     6     5    1
    20     7     8    1
    21     5     1    1
    22    42    39    1
    23     1     2    1
    24     1    21    1
    25     4    39    1
    26     4    43    1
    27     4    21    1
    28    45    43    1
    29    39    40    1
    30    39    41    1
    31    44    43    1
    32    43    46    1
    33    21    22    1
    34    21     3    1
    35    32    31    1
    36    34    31    1
    37    31     3    1
    38    31    33    1
    39     3    23    1
    40     3    27    1
    41    26    23    1
    42    29    27    1
    43    23    24    1
    44    23    25    1
    45    27    28    1
    46    27    30    1
