@<TRIPOS>MOLECULE
1
 45 46 0 0 0
SMALL
GASTEIGER

@<TRIPOS>ATOM
      1 P           4.3488    6.5287    3.7553 P.3     1  UNL1        0.0000
      2 SI          5.7306    9.1624    2.6752 Si      1  UNL1        0.0000
      3 SI          2.8490    7.9674    1.4565 Si      1  UNL1        0.0000
      4 C           4.5555    7.3942    5.3482 C.3     1  UNL1        0.0000
      5 H           4.9543    8.3977    5.3720 H       1  UNL1        0.0000
      6 H           4.8736    6.7911    6.1900 H       1  UNL1        0.0000
      7 C           3.1041    7.2520    4.9119 C.3     1  UNL1        0.0000
      8 H           2.6528    8.1705    4.5473 H       1  UNL1        0.0000
      9 C           2.1516    6.3584    5.5917 C.ar    1  UNL1        0.0000
     10 C           0.7831    6.5931    5.4654 C.ar    1  UNL1        0.0000
     11 H           0.4416    7.4528    4.9051 H       1  UNL1        0.0000
     12 C          -0.1377    5.7391    6.0413 C.ar    1  UNL1        0.0000
     13 H          -1.1939    5.9353    5.9284 H       1  UNL1        0.0000
     14 C           0.2899    4.6332    6.7571 C.ar    1  UNL1        0.0000
     15 H          -0.4293    3.9630    7.2029 H       1  UNL1        0.0000
     16 C           1.6456    4.3928    6.8955 C.ar    1  UNL1        0.0000
     17 H           1.9898    3.5332    7.4516 H       1  UNL1        0.0000
     18 C           2.5680    5.2441    6.3150 C.ar    1  UNL1        0.0000
     19 H           3.6219    5.0410    6.4360 H       1  UNL1        0.0000
     20 C           4.5406    7.6863    2.3506 C.3     1  UNL1        0.0000
     21 H           5.1050    7.0618    1.6458 H       1  UNL1        0.0000
     22 C           7.3240    8.4016    3.4004 C.3     1  UNL1        0.0000
     23 H           7.0984    7.6322    4.1355 H       1  UNL1        0.0000
     24 H           7.9512    9.1465    3.8811 H       1  UNL1        0.0000
     25 H           7.9173    7.9342    2.6196 H       1  UNL1        0.0000
     26 C           5.0112   10.5122    3.8276 C.3     1  UNL1        0.0000
     27 H           5.6472   10.6710    4.6936 H       1  UNL1        0.0000
     28 H           4.0155   10.2781    4.1879 H       1  UNL1        0.0000
     29 H           4.9493   11.4605    3.3033 H       1  UNL1        0.0000
     30 C           6.1366    9.9733    0.9995 C.3     1  UNL1        0.0000
     31 H           6.4749    9.2435    0.2715 H       1  UNL1        0.0000
     32 H           6.9262   10.7086    1.1158 H       1  UNL1        0.0000
     33 H           5.2748   10.4832    0.5818 H       1  UNL1        0.0000
     34 C           3.2022    8.0172   -0.4154 C.3     1  UNL1        0.0000
     35 H           3.6447    7.0876   -0.7594 H       1  UNL1        0.0000
     36 H           3.8799    8.8216   -0.6793 H       1  UNL1        0.0000
     37 H           2.2837    8.1661   -0.9738 H       1  UNL1        0.0000
     38 C           2.0545    9.6238    1.9768 C.3     1  UNL1        0.0000
     39 H           1.7110    9.6258    3.0063 H       1  UNL1        0.0000
     40 H           1.1901    9.8239    1.3518 H       1  UNL1        0.0000
     41 H           2.7434   10.4527    1.8563 H       1  UNL1        0.0000
     42 C           1.6328    6.5397    1.8047 C.3     1  UNL1        0.0000
     43 H           1.8493    5.6788    1.1794 H       1  UNL1        0.0000
     44 H           0.6097    6.8385    1.5949 H       1  UNL1        0.0000
     45 H           1.6695    6.2064    2.8385 H       1  UNL1        0.0000
@<TRIPOS>BOND
     1    37    34    1
     2    35    34    1
     3    36    34    1
     4    34     3    1
     5    31    30    1
     6    33    30    1
     7    30    32    1
     8    30     2    1
     9    43    42    1
    10    40    38    1
    11     3    42    1
    12     3    38    1
    13     3    20    1
    14    44    42    1
    15    21    20    1
    16    42    45    1
    17    41    38    1
    18    38    39    1
    19    20     2    1
    20    20     1    1
    21    25    22    1
    22     2    22    1
    23     2    26    1
    24    29    26    1
    25    22    24    1
    26    22    23    1
    27     1     7    1
    28     1     4    1
    29    26    28    1
    30    26    27    1
    31     8     7    1
    32    11    10    1
    33     7     4    1
    34     7     9    1
    35     4     5    1
    36     4     6    1
    37    10     9   ar
    38    10    12   ar
    39     9    18   ar
    40    13    12    1
    41    12    14   ar
    42    18    19    1
    43    18    16   ar
    44    14    16   ar
    45    14    15    1
    46    16    17    1
