@<TRIPOS>MOLECULE
1
 43 43 0 0 0
SMALL
GASTEIGER

@<TRIPOS>ATOM
      1 P           7.7900    9.6258   14.7996 P.3     1  UNL1        0.0000
      2 SI          9.4940    9.9924   16.1922 Si      1  UNL1        0.0000
      3 C           6.3512    9.4529   15.9360 C.ar    1  UNL1        0.0000
      4 C           6.1230    8.2942   16.6977 C.ar    1  UNL1        0.0000
      5 C           5.0183    8.2376   17.5362 C.ar    1  UNL1        0.0000
      6 H           4.8426    7.3499   18.1260 H       1  UNL1        0.0000
      7 C           4.1353    9.2927   17.6337 C.ar    1  UNL1        0.0000
      8 H           3.2799    9.2285   18.2904 H       1  UNL1        0.0000
      9 C           4.3550   10.4271   16.8807 C.ar    1  UNL1        0.0000
     10 H           3.6598   11.2504   16.9501 H       1  UNL1        0.0000
     11 C           5.4501   10.5285   16.0358 C.ar    1  UNL1        0.0000
     12 C           5.6123   11.7963   15.2330 C.3     1  UNL1        0.0000
     13 H           6.5667   11.7280   14.6953 H       1  UNL1        0.0000
     14 C           4.4826   11.9153   14.2081 C.3     1  UNL1        0.0000
     15 H           4.4281   11.0150   13.5991 H       1  UNL1        0.0000
     16 H           4.6466   12.7714   13.5555 H       1  UNL1        0.0000
     17 H           3.5239   12.0435   14.7054 H       1  UNL1        0.0000
     18 C           5.6771   13.0338   16.1271 C.3     1  UNL1        0.0000
     19 H           6.4642   12.9221   16.8695 H       1  UNL1        0.0000
     20 H           4.7360   13.1961   16.6471 H       1  UNL1        0.0000
     21 H           5.8896   13.9169   15.5271 H       1  UNL1        0.0000
     22 C           7.0291    7.0847   16.6542 C.3     1  UNL1        0.0000
     23 H           7.8479    7.2867   15.9380 H       1  UNL1        0.0000
     24 C           6.2625    5.8484   16.1767 C.3     1  UNL1        0.0000
     25 H           6.9333    4.9941   16.0971 H       1  UNL1        0.0000
     26 H           5.8012    6.0335   15.2080 H       1  UNL1        0.0000
     27 H           5.4709    5.5902   16.8765 H       1  UNL1        0.0000
     28 C           7.6520    6.8211   18.0266 C.3     1  UNL1        0.0000
     29 H           8.1499    7.7131   18.3995 H       1  UNL1        0.0000
     30 H           8.3799    6.0125   17.9662 H       1  UNL1        0.0000
     31 H           6.8879    6.5332   18.7453 H       1  UNL1        0.0000
     32 C          10.6411    8.5131   16.6203 C.3     1  UNL1        0.0000
     33 H          11.1136    8.1149   15.7274 H       1  UNL1        0.0000
     34 H          10.1231    7.6989   17.1161 H       1  UNL1        0.0000
     35 H          11.4345    8.8488   17.2816 H       1  UNL1        0.0000
     36 C           8.8211   10.7560   17.8073 C.3     1  UNL1        0.0000
     37 H           8.5157   11.7838   17.6431 H       1  UNL1        0.0000
     38 H           9.5826   10.7540   18.5796 H       1  UNL1        0.0000
     39 H           7.9568   10.2147   18.1790 H       1  UNL1        0.0000
     40 C          10.5845   11.2698   15.2781 C.3     1  UNL1        0.0000
     41 H          11.3966   11.6030   15.9153 H       1  UNL1        0.0000
     42 H          10.0123   12.1433   14.9791 H       1  UNL1        0.0000
     43 H          11.0253   10.8343   14.3861 H       1  UNL1        0.0000
@<TRIPOS>BOND
     1    16    14    1
     2    15    14    1
     3    14    17    1
     4    14    12    1
     5    43    40    1
     6    13    12    1
     7     1     3    1
     8     1     2    1
     9    42    40    1
    10    26    24    1
    11    12    11    1
    12    12    18    1
    13    40    41    1
    14    40     2    1
    15    21    18    1
    16    33    32    1
    17     3    11   ar
    18     3     4   ar
    19    23    22    1
    20    11     9   ar
    21    25    24    1
    22    18    20    1
    23    18    19    1
    24    24    22    1
    25    24    27    1
    26     2    32    1
    27     2    36    1
    28    32    34    1
    29    32    35    1
    30    22     4    1
    31    22    28    1
    32     4     5   ar
    33     9    10    1
    34     9     7   ar
    35     5     7   ar
    36     5     6    1
    37     7     8    1
    38    37    36    1
    39    36    39    1
    40    36    38    1
    41    30    28    1
    42    28    29    1
    43    28    31    1
