@<TRIPOS>MOLECULE
1
 52 54 0 0 0
SMALL
GASTEIGER

@<TRIPOS>ATOM
      1 P           7.8981    3.5106    3.4304 P.3     1  UNL1       -0.0964
      2 C           6.9490    4.3733    4.7869 C.3     1  UNL1       -0.0200
      3 H           6.4045    5.2296    4.3735 H       1  UNL1        0.0349
      4 C           7.9516    4.8697    5.8291 C.3     1  UNL1       -0.0463
      5 H           8.5443    4.0204    6.1827 H       1  UNL1        0.0271
      6 H           8.6427    5.5855    5.3780 H       1  UNL1        0.0271
      7 C           7.2471    5.5152    7.0181 C.3     1  UNL1       -0.0525
      8 H           6.6868    6.3928    6.6834 H       1  UNL1        0.0265
      9 H           7.9886    5.8494    7.7468 H       1  UNL1        0.0265
     10 C           6.2912    4.5178    7.6622 C.3     1  UNL1       -0.0530
     11 H           6.8571    3.6583    8.0269 H       1  UNL1        0.0265
     12 H           5.7860    4.9762    8.5150 H       1  UNL1        0.0265
     13 C           5.2654    4.0501    6.6367 C.3     1  UNL1       -0.0525
     14 H           4.6719    4.9063    6.3034 H       1  UNL1        0.0265
     15 H           4.5831    3.3288    7.0915 H       1  UNL1        0.0265
     16 C           5.9525    3.4107    5.4319 C.3     1  UNL1       -0.0463
     17 H           5.1894    3.1136    4.7099 H       1  UNL1        0.0271
     18 H           6.4831    2.5081    5.7503 H       1  UNL1        0.0271
     19 C           6.5355    2.9001    2.3019 C.3     1  UNL1       -0.0200
     20 H           6.0290    2.1368    2.9098 H       1  UNL1        0.0349
     21 C           5.4948    3.9162    1.8328 C.3     1  UNL1       -0.0463
     22 H           5.0687    4.4603    2.6780 H       1  UNL1        0.0271
     23 H           5.9592    4.6369    1.1570 H       1  UNL1        0.0271
     24 C           4.3749    3.1953    1.0822 C.3     1  UNL1       -0.0525
     25 H           3.8825    2.4897    1.7558 H       1  UNL1        0.0265
     26 H           3.6265    3.9199    0.7526 H       1  UNL1        0.0265
     27 C           4.9335    2.4409   -0.1203 C.3     1  UNL1       -0.0530
     28 H           5.3624    3.1555   -0.8274 H       1  UNL1        0.0265
     29 H           4.1293    1.9082   -0.6319 H       1  UNL1        0.0265
     30 C           6.0132    1.4575    0.3219 C.3     1  UNL1       -0.0525
     31 H           6.4348    0.9510   -0.5489 H       1  UNL1        0.0265
     32 H           5.5718    0.6963    0.9691 H       1  UNL1        0.0265
     33 C           7.1192    2.1845    1.0824 C.3     1  UNL1       -0.0463
     34 H           7.5948    2.9047    0.4117 H       1  UNL1        0.0271
     35 H           7.8808    1.4664    1.3990 H       1  UNL1        0.0271
     36 C           8.6415    4.9121    2.4206 C.3     1  UNL1       -0.0200
     37 H           8.5372    4.5714    1.3812 H       1  UNL1        0.0349
     38 C           7.9837    6.2881    2.5404 C.3     1  UNL1       -0.0463
     39 H           6.9107    6.2306    2.3542 H       1  UNL1        0.0271
     40 H           8.1323    6.6875    3.5451 H       1  UNL1        0.0271
     41 C           8.6154    7.2534    1.5374 C.3     1  UNL1       -0.0525
     42 H           8.4522    6.8839    0.5217 H       1  UNL1        0.0265
     43 H           8.1344    8.2311    1.6175 H       1  UNL1        0.0265
     44 C          10.1129    7.3867    1.7931 C.3     1  UNL1       -0.0530
     45 H          10.2736    7.8140    2.7858 H       1  UNL1        0.0265
     46 H          10.5579    8.0645    1.0617 H       1  UNL1        0.0265
     47 C          10.7844    6.0193    1.7161 C.3     1  UNL1       -0.0525
     48 H          11.8496    6.1132    1.9370 H       1  UNL1        0.0265
     49 H          10.6883    5.6245    0.7015 H       1  UNL1        0.0265
     50 C          10.1396    5.0458    2.6993 C.3     1  UNL1       -0.0463
     51 H          10.2980    5.4043    3.7191 H       1  UNL1        0.0271
     52 H          10.6200    4.0677    2.6105 H       1  UNL1        0.0271
@<TRIPOS>BOND
     1    28    27    1
     2    29    27    1
     3    31    30    1
     4    27    30    1
     5    27    24    1
     6    30    32    1
     7    30    33    1
     8    34    33    1
     9    42    41    1
    10    49    47    1
    11    26    24    1
    12    46    44    1
    13    24    25    1
    14    24    21    1
    15    33    35    1
    16    33    19    1
    17    23    21    1
    18    37    36    1
    19    41    43    1
    20    41    44    1
    21    41    38    1
    22    47    44    1
    23    47    48    1
    24    47    50    1
    25    44    45    1
    26    21    19    1
    27    21    22    1
    28    19    20    1
    29    19     1    1
    30    39    38    1
    31    36    38    1
    32    36    50    1
    33    36     1    1
    34    38    40    1
    35    52    50    1
    36    50    51    1
    37     1     2    1
    38     3     2    1
    39    17    16    1
    40     2    16    1
    41     2     4    1
    42     6     4    1
    43    16    18    1
    44    16    13    1
    45     4     5    1
    46     4     7    1
    47    14    13    1
    48    13    15    1
    49    13    10    1
    50     8     7    1
    51     7    10    1
    52     7     9    1
    53    10    11    1
    54    10    12    1
