@<TRIPOS>MOLECULE
1
 52 54 0 0 0
SMALL
GASTEIGER

@<TRIPOS>ATOM
      1 P           9.5209    4.4219   13.6901 P.3     1  UNL1       -0.0964
      2 C           8.7635    3.0318   14.7039 C.3     1  UNL1       -0.0200
      3 H           8.8624    3.3876   15.7397 H       1  UNL1        0.0349
      4 C           9.4241    1.6541   14.6065 C.3     1  UNL1       -0.0463
      5 H           9.2742    1.2383   13.6086 H       1  UNL1        0.0271
      6 H          10.4969    1.7155   14.7904 H       1  UNL1        0.0271
      7 C           8.7974    0.7022   15.6253 C.3     1  UNL1       -0.0525
      8 H           9.2834   -0.2742   15.5600 H       1  UNL1        0.0265
      9 H           8.9593    1.0883   16.6349 H       1  UNL1        0.0265
     10 C           7.3009    0.5577   15.3722 C.3     1  UNL1       -0.0530
     11 H           7.1415    0.1132   14.3869 H       1  UNL1        0.0265
     12 H           6.8581   -0.1090   16.1151 H       1  UNL1        0.0265
     13 C           6.6261    1.9241   15.4263 C.3     1  UNL1       -0.0525
     14 H           6.7216    2.3365   16.4340 H       1  UNL1        0.0265
     15 H           5.5610    1.8241   15.2074 H       1  UNL1        0.0265
     16 C           7.2667    2.8841   14.4266 C.3     1  UNL1       -0.0463
     17 H           6.7778    3.8591   14.5024 H       1  UNL1        0.0271
     18 H           7.1097    2.5066   13.4130 H       1  UNL1        0.0271
     19 C          10.8922    5.0077   14.8199 C.3     1  UNL1       -0.0200
     20 H          11.3939    5.7777   14.2143 H       1  UNL1        0.0349
     21 C          11.9398    3.9882   15.2690 C.3     1  UNL1       -0.0463
     22 H          11.4869    3.2694   15.9546 H       1  UNL1        0.0271
     23 H          12.3507    3.4425   14.4178 H       1  UNL1        0.0271
     24 C          13.0754    4.7069   15.9983 C.3     1  UNL1       -0.0525
     25 H          13.8307    3.9811   16.3091 H       1  UNL1        0.0265
     26 H          13.5533    5.4150   15.3169 H       1  UNL1        0.0265
     27 C          12.5428    5.4563   17.2154 C.3     1  UNL1       -0.0530
     28 H          13.3568    5.9907   17.7096 H       1  UNL1        0.0265
     29 H          12.1328    4.7385   17.9305 H       1  UNL1        0.0265
     30 C          11.4498    6.4366   16.8008 C.3     1  UNL1       -0.0525
     31 H          11.8734    7.2039   16.1486 H       1  UNL1        0.0265
     32 H          11.0435    6.9363   17.6828 H       1  UNL1        0.0265
     33 C          10.3314    5.7082   16.0592 C.3     1  UNL1       -0.0463
     34 H           9.5569    6.4253   15.7715 H       1  UNL1        0.0271
     35 H           9.8791    4.9772   16.7348 H       1  UNL1        0.0271
     36 C          10.4672    3.5318   12.3539 C.3     1  UNL1       -0.0200
     37 H          10.9903    2.6727   12.7892 H       1  UNL1        0.0349
     38 C           9.4730    3.0288   11.3073 C.3     1  UNL1       -0.0463
     39 H           8.7549    2.3451   11.7666 H       1  UNL1        0.0271
     40 H           8.9092    3.8798   10.9119 H       1  UNL1        0.0271
     41 C          10.1876    2.3289   10.1557 C.3     1  UNL1       -0.0525
     42 H          10.7205    1.4506   10.5312 H       1  UNL1        0.0265
     43 H           9.4548    1.9872    9.4216 H       1  UNL1        0.0265
     44 C          11.1796    3.2838    9.5016 C.3     1  UNL1       -0.0530
     45 H          10.6407    4.1430    9.0969 H       1  UNL1        0.0265
     46 H          11.6927    2.7871    8.6753 H       1  UNL1        0.0265
     47 C          12.1935    3.7633   10.5337 C.3     1  UNL1       -0.0525
     48 H          12.9006    4.4549   10.0705 H       1  UNL1        0.0265
     49 H          12.7613    2.9062   10.9071 H       1  UNL1        0.0265
     50 C          11.4954    4.4560   11.7025 C.3     1  UNL1       -0.0463
     51 H          10.9932    5.3592   11.3434 H       1  UNL1        0.0271
     52 H          12.2494    4.7605   12.4310 H       1  UNL1        0.0271
@<TRIPOS>BOND
     1    46    44    1
     2    45    44    1
     3    43    41    1
     4    44    41    1
     5    44    47    1
     6    48    47    1
     7    41    42    1
     8    41    38    1
     9    47    49    1
    10    47    50    1
    11    40    38    1
    12    38    39    1
    13    38    36    1
    14    51    50    1
    15    50    36    1
    16    50    52    1
    17    36    37    1
    18    36     1    1
    19    18    16    1
    20     5     4    1
    21     1     2    1
    22     1    19    1
    23    20    19    1
    24    11    10    1
    25    23    21    1
    26    16    17    1
    27    16     2    1
    28    16    13    1
    29     4     2    1
    30     4     6    1
    31     4     7    1
    32     2     3    1
    33    19    21    1
    34    19    33    1
    35    15    13    1
    36    21    22    1
    37    21    24    1
    38    26    24    1
    39    10    13    1
    40    10     7    1
    41    10    12    1
    42    13    14    1
    43     8     7    1
    44     7     9    1
    45    34    33    1
    46    24    25    1
    47    24    27    1
    48    33    35    1
    49    33    30    1
    50    31    30    1
    51    30    27    1
    52    30    32    1
    53    27    28    1
    54    27    29    1
