@<TRIPOS>MOLECULE
1
 20 20 0 0 0
SMALL
GASTEIGER

@<TRIPOS>ATOM
      1 P          -1.8979    3.5838    5.5145 P.3     1  UNL1       -0.0810
      2 C          -2.7647    2.2217    6.3933 C.3     1  UNL1       -0.0405
      3 H          -2.6349    2.3419    7.4703 H       1  UNL1        0.0280
      4 H          -2.4044    1.2416    6.0921 H       1  UNL1        0.0280
      5 H          -3.8227    2.2963    6.1426 H       1  UNL1        0.0280
      6 C          -0.3146    3.5838    6.4371 C.ar    1  UNL1       -0.0239
      7 C           0.3316    2.3885    6.7440 C.ar    1  UNL1       -0.0542
      8 H          -0.1418    1.4461    6.5095 H       1  UNL1        0.0624
      9 C           1.5700    2.3876    7.3588 C.ar    1  UNL1       -0.0612
     10 H           2.0513    1.4492    7.5945 H       1  UNL1        0.0618
     11 C           2.1951    3.5838    7.6688 C.ar    1  UNL1       -0.0617
     12 H           3.1631    3.5838    8.1470 H       1  UNL1        0.0618
     13 C          -2.7647    4.9459    6.3933 C.3     1  UNL1       -0.0405
     14 H          -2.6349    4.8257    7.4703 H       1  UNL1        0.0280
     15 H          -2.4044    5.9260    6.0921 H       1  UNL1        0.0280
     16 H          -3.8227    4.8713    6.1426 H       1  UNL1        0.0280
     17 C           0.3316    4.7791    6.7440 C.ar    1  UNL1       -0.0542
     18 H          -0.1418    5.7215    6.5095 H       1  UNL1        0.0624
     19 C           1.5700    4.7800    7.3588 C.ar    1  UNL1       -0.0612
     20 H           2.0513    5.7184    7.5945 H       1  UNL1        0.0618
@<TRIPOS>BOND
     1     1     2    1
     2     1    13    1
     3     1     6    1
     4     4     2    1
     5    15    13    1
     6     5     2    1
     7    16    13    1
     8     2     3    1
     9    13    14    1
    10     6    17   ar
    11     6     7   ar
    12    18    17    1
    13     8     7    1
    14    17    19   ar
    15     7     9   ar
    16    19    20    1
    17    19    11   ar
    18     9    10    1
    19     9    11   ar
    20    11    12    1
