@<TRIPOS>MOLECULE
1
 21 20 0 0 0
SMALL
GASTEIGER

@<TRIPOS>ATOM
      1 P          20.4886   24.8100    5.2266 P.3     1  UNL1       -0.0744
      2 C          21.3052   26.0535    6.3677 C.3     1  UNL1       -0.0221
      3 H          20.4468   26.4086    6.9581 H       1  UNL1        0.0347
      4 C          22.3409   25.5087    7.3432 C.3     1  UNL1       -0.0584
      5 H          23.2755   25.2788    6.8375 H       1  UNL1        0.0236
      6 H          21.9728   24.6139    7.8405 H       1  UNL1        0.0236
      7 H          22.5496   26.2584    8.1071 H       1  UNL1        0.0236
      8 C          21.8456   27.2582    5.5968 C.3     1  UNL1       -0.0584
      9 H          22.1394   28.0424    6.2955 H       1  UNL1        0.0236
     10 H          21.0788   27.6576    4.9341 H       1  UNL1        0.0236
     11 H          22.7151   26.9937    5.0008 H       1  UNL1        0.0236
     12 C          21.8340   23.7087    4.5204 C.3     1  UNL1       -0.0221
     13 H          21.2773   23.1409    3.7580 H       1  UNL1        0.0347
     14 C          22.3799   22.6936    5.5233 C.3     1  UNL1       -0.0584
     15 H          22.8796   21.8840    4.9913 H       1  UNL1        0.0236
     16 H          21.5707   22.2625    6.1109 H       1  UNL1        0.0236
     17 H          23.0971   23.1464    6.2010 H       1  UNL1        0.0236
     18 C          22.9613   24.4541    3.8130 C.3     1  UNL1       -0.0584
     19 H          23.6176   24.9442    4.5282 H       1  UNL1        0.0236
     20 H          22.5651   25.2055    3.1312 H       1  UNL1        0.0236
     21 H          23.5604   23.7505    3.2348 H       1  UNL1        0.0236
@<TRIPOS>BOND
     1    20    18    1
     2    21    18    1
     3    13    12    1
     4    18    12    1
     5    18    19    1
     6    12     1    1
     7    12    14    1
     8    10     8    1
     9    15    14    1
    10    11     8    1
    11     1     2    1
    12    14    16    1
    13    14    17    1
    14     8     9    1
    15     8     2    1
    16     2     3    1
    17     2     4    1
    18     5     4    1
    19     4     6    1
    20     4     7    1
