@<TRIPOS>MOLECULE
1
 52 54 0 0 0
SMALL
GASTEIGER

@<TRIPOS>ATOM
      1 P           7.3727   13.8923    2.3928 P.3     1  UNL1       -0.0964
      2 C           8.8574   12.7293    2.4756 C.3     1  UNL1       -0.0200
      3 H           8.9436   12.5268    3.5510 H       1  UNL1        0.0349
      4 C           6.1149   13.0333    3.5145 C.3     1  UNL1       -0.0200
      5 H           5.2812   13.7520    3.5020 H       1  UNL1        0.0349
      6 C           9.9761   10.5206    2.1357 C.3     1  UNL1       -0.0525
      7 H           9.9588   10.3350    3.2127 H       1  UNL1        0.0265
      8 H           9.9093    9.5540    1.6300 H       1  UNL1        0.0265
      9 C           4.3570   11.3444    4.0504 C.3     1  UNL1       -0.0525
     10 H           3.5837   12.1065    3.9239 H       1  UNL1        0.0265
     11 H           3.9256   10.3810    3.7677 H       1  UNL1        0.0265
     12 C           8.7764   11.3860    1.7476 C.3     1  UNL1       -0.0463
     13 H           7.8601   10.8513    1.9940 H       1  UNL1        0.0271
     14 H           8.7978   11.5422    0.6681 H       1  UNL1        0.0271
     15 C           6.9560   13.4150   -1.7744 C.3     1  UNL1       -0.0525
     16 H           7.5854   13.7729   -2.5924 H       1  UNL1        0.0265
     17 H           6.9780   12.3217   -1.7904 H       1  UNL1        0.0265
     18 C           7.5090   13.9177   -0.4426 C.3     1  UNL1       -0.0463
     19 H           7.5267   15.0088   -0.4420 H       1  UNL1        0.0271
     20 H           8.5368   13.5748   -0.3231 H       1  UNL1        0.0271
     21 C           6.6433   13.4319    0.7183 C.3     1  UNL1       -0.0200
     22 H           6.6215   12.3365    0.6914 H       1  UNL1        0.0349
     23 C          10.1492   13.4310    2.0524 C.3     1  UNL1       -0.0463
     24 H          10.1516   13.5976    0.9737 H       1  UNL1        0.0271
     25 H          10.2107   14.4072    2.5344 H       1  UNL1        0.0271
     26 C          11.3614   12.5833    2.4285 C.3     1  UNL1       -0.0525
     27 H          12.2775   13.0934    2.1228 H       1  UNL1        0.0265
     28 H          11.3946   12.4593    3.5133 H       1  UNL1        0.0265
     29 C           5.2195   13.9488    0.5131 C.3     1  UNL1       -0.0463
     30 H           5.2399   15.0391    0.4905 H       1  UNL1        0.0271
     31 H           4.5667   13.6431    1.3325 H       1  UNL1        0.0271
     32 C           6.6140   12.9484    4.9571 C.3     1  UNL1       -0.0463
     33 H           7.0800   13.8880    5.2541 H       1  UNL1        0.0271
     34 H           7.3638   12.1573    5.0425 H       1  UNL1        0.0271
     35 C           5.5419   11.6645    3.1377 C.3     1  UNL1       -0.0463
     36 H           5.2058   11.6327    2.1021 H       1  UNL1        0.0271
     37 H           6.2991   10.8917    3.2784 H       1  UNL1        0.0271
     38 C           4.6508   13.4379   -0.8089 C.3     1  UNL1       -0.0525
     39 H           4.6079   12.3453   -0.7924 H       1  UNL1        0.0265
     40 H           3.6310   13.8083   -0.9389 H       1  UNL1        0.0265
     41 C          11.2827   11.2128    1.7633 C.3     1  UNL1       -0.0530
     42 H          11.3303   11.3338    0.6784 H       1  UNL1        0.0265
     43 H          12.1316   10.5967    2.0679 H       1  UNL1        0.0265
     44 C           4.7982   11.3065    5.5095 C.3     1  UNL1       -0.0530
     45 H           5.5130   10.4915    5.6486 H       1  UNL1        0.0265
     46 H           3.9397   11.1103    6.1556 H       1  UNL1        0.0265
     47 C           5.5222   13.8927   -1.9744 C.3     1  UNL1       -0.0530
     48 H           5.1238   13.5065   -2.9154 H       1  UNL1        0.0265
     49 H           5.5106   14.9837   -2.0286 H       1  UNL1        0.0265
     50 C           5.4559   12.6265    5.8991 C.3     1  UNL1       -0.0525
     51 H           5.8200   12.5686    6.9268 H       1  UNL1        0.0265
     52 H           4.7172   13.4310    5.8524 H       1  UNL1        0.0265
@<TRIPOS>BOND
     1    48    47    1
     2    16    15    1
     3    49    47    1
     4    47    15    1
     5    47    38    1
     6    17    15    1
     7    15    18    1
     8    40    38    1
     9    38    39    1
    10    38    29    1
    11    18    19    1
    12    18    20    1
    13    18    21    1
    14    30    29    1
    15    29    21    1
    16    29    31    1
    17    14    12    1
    18    42    41    1
    19    22    21    1
    20    21     1    1
    21    24    23    1
    22     8     6    1
    23    12    13    1
    24    12     6    1
    25    12     2    1
    26    41    43    1
    27    41     6    1
    28    41    26    1
    29    23    26    1
    30    23     2    1
    31    23    25    1
    32    36    35    1
    33    27    26    1
    34     6     7    1
    35     1     2    1
    36     1     4    1
    37    26    28    1
    38     2     3    1
    39    35    37    1
    40    35     4    1
    41    35     9    1
    42     5     4    1
    43     4    32    1
    44    11     9    1
    45    10     9    1
    46     9    44    1
    47    32    34    1
    48    32    33    1
    49    32    50    1
    50    44    45    1
    51    44    50    1
    52    44    46    1
    53    52    50    1
    54    50    51    1
