@<TRIPOS>MOLECULE
1
 52 54 0 0 0
SMALL
GASTEIGER

@<TRIPOS>ATOM
      1 P           7.3724   18.5843    2.3930 P.3     1  UNL1       -0.0964
      2 C           8.8570   19.7474    2.4751 C.3     1  UNL1       -0.0200
      3 H           8.9431   19.9508    3.5504 H       1  UNL1        0.0349
      4 C           6.1151   19.4434    3.5150 C.3     1  UNL1       -0.0200
      5 H           5.2812   18.7248    3.5027 H       1  UNL1        0.0349
      6 C           9.9757   21.9560    2.1337 C.3     1  UNL1       -0.0525
      7 H           9.9584   22.1423    3.2106 H       1  UNL1        0.0265
      8 H           9.9089   22.9222    1.6273 H       1  UNL1        0.0265
      9 C           4.3577   21.1328    4.0514 C.3     1  UNL1       -0.0525
     10 H           3.5841   20.3708    3.9250 H       1  UNL1        0.0265
     11 H           3.9265   22.0963    3.7688 H       1  UNL1        0.0265
     12 C           8.7760   21.0903    1.7462 C.3     1  UNL1       -0.0463
     13 H           7.8597   21.6251    1.9923 H       1  UNL1        0.0271
     14 H           8.7973   20.9334    0.6668 H       1  UNL1        0.0271
     15 C           6.9545   19.0613   -1.7740 C.3     1  UNL1       -0.0525
     16 H           7.5835   18.7033   -2.5922 H       1  UNL1        0.0265
     17 H           6.9768   20.1546   -1.7900 H       1  UNL1        0.0265
     18 C           7.5078   18.5584   -0.4424 C.3     1  UNL1       -0.0463
     19 H           7.5250   17.4673   -0.4418 H       1  UNL1        0.0271
     20 H           8.5357   18.9009   -0.3232 H       1  UNL1        0.0271
     21 C           6.6425   19.0445    0.7187 C.3     1  UNL1       -0.0200
     22 H           6.6208   20.1398    0.6916 H       1  UNL1        0.0349
     23 C          10.1488   19.0455    2.0525 C.3     1  UNL1       -0.0463
     24 H          10.1512   18.8780    0.9739 H       1  UNL1        0.0271
     25 H          10.2104   18.0698    2.5354 H       1  UNL1        0.0271
     26 C          11.3611   19.8935    2.4278 C.3     1  UNL1       -0.0525
     27 H          12.2771   19.3833    2.1225 H       1  UNL1        0.0265
     28 H          11.3943   20.0184    3.5126 H       1  UNL1        0.0265
     29 C           5.2185   18.5278    0.5139 C.3     1  UNL1       -0.0463
     30 H           5.2387   17.4375    0.4914 H       1  UNL1        0.0271
     31 H           4.5661   18.8337    1.3336 H       1  UNL1        0.0271
     32 C           6.6144   19.5280    4.9576 C.3     1  UNL1       -0.0463
     33 H           7.0803   18.5882    5.2544 H       1  UNL1        0.0271
     34 H           7.3644   20.3189    5.0430 H       1  UNL1        0.0271
     35 C           5.5423   20.8123    3.1384 C.3     1  UNL1       -0.0463
     36 H           5.2060   20.8442    2.1030 H       1  UNL1        0.0271
     37 H           6.2998   21.5848    3.2790 H       1  UNL1        0.0271
     38 C           4.6496   19.0388   -0.8079 C.3     1  UNL1       -0.0525
     39 H           4.6069   20.1314   -0.7913 H       1  UNL1        0.0265
     40 H           3.6296   18.6686   -0.9376 H       1  UNL1        0.0265
     41 C          11.2823   21.2635    1.7617 C.3     1  UNL1       -0.0530
     42 H          11.3298   21.1418    0.6769 H       1  UNL1        0.0265
     43 H          12.1312   21.8799    2.0658 H       1  UNL1        0.0265
     44 C           4.7992   21.1703    5.5104 C.3     1  UNL1       -0.0530
     45 H           5.5143   21.9852    5.6495 H       1  UNL1        0.0265
     46 H           3.9409   21.3668    6.1567 H       1  UNL1        0.0265
     47 C           5.5205   18.5839   -1.9737 C.3     1  UNL1       -0.0530
     48 H           5.1219   18.9703   -2.9146 H       1  UNL1        0.0265
     49 H           5.5087   17.4929   -2.0279 H       1  UNL1        0.0265
     50 C           5.4566   19.8501    5.8998 C.3     1  UNL1       -0.0525
     51 H           5.8209   19.9079    6.9275 H       1  UNL1        0.0265
     52 H           4.7177   19.0459    5.8532 H       1  UNL1        0.0265
@<TRIPOS>BOND
     1    48    47    1
     2    16    15    1
     3    49    47    1
     4    47    15    1
     5    47    38    1
     6    17    15    1
     7    15    18    1
     8    40    38    1
     9    38    39    1
    10    38    29    1
    11    18    19    1
    12    18    20    1
    13    18    21    1
    14    30    29    1
    15    29    21    1
    16    29    31    1
    17    14    12    1
    18    42    41    1
    19    22    21    1
    20    21     1    1
    21    24    23    1
    22     8     6    1
    23    12    13    1
    24    12     6    1
    25    12     2    1
    26    41    43    1
    27    41     6    1
    28    41    26    1
    29    23    26    1
    30    23     2    1
    31    23    25    1
    32    36    35    1
    33    27    26    1
    34     6     7    1
    35     1     2    1
    36     1     4    1
    37    26    28    1
    38     2     3    1
    39    35    37    1
    40    35     4    1
    41    35     9    1
    42     5     4    1
    43     4    32    1
    44    11     9    1
    45    10     9    1
    46     9    44    1
    47    32    34    1
    48    32    33    1
    49    32    50    1
    50    44    45    1
    51    44    50    1
    52    44    46    1
    53    52    50    1
    54    50    51    1
