@<TRIPOS>MOLECULE
1
 31 30 0 0 0
SMALL
GASTEIGER

@<TRIPOS>ATOM
      1 P           7.1401    3.0034    4.2120 P.3     1  UNL1        0.0000
      2 SI          5.6770    1.5599    1.9465 Si      1  UNL1        0.0000
      3 SI          4.3897    1.6409    5.0059 Si      1  UNL1        0.0000
      4 C           5.5000    2.4659    3.6512 C.3     1  UNL1        0.0000
      5 H           5.0157    3.4211    3.4204 H       1  UNL1        0.0000
      6 C           7.2252    2.0535    0.9524 C.3     1  UNL1        0.0000
      7 H           8.1413    1.7202    1.4291 H       1  UNL1        0.0000
      8 H           7.2976    3.1269    0.8020 H       1  UNL1        0.0000
      9 H           7.1908    1.5941   -0.0316 H       1  UNL1        0.0000
     10 C           4.1561    2.0791    0.9228 C.3     1  UNL1        0.0000
     11 H           4.1655    3.1445    0.7126 H       1  UNL1        0.0000
     12 H           3.2225    1.8503    1.4232 H       1  UNL1        0.0000
     13 H           4.1523    1.5609   -0.0300 H       1  UNL1        0.0000
     14 C           5.7614   -0.3303    2.1843 C.3     1  UNL1        0.0000
     15 H           6.6561   -0.6313    2.7196 H       1  UNL1        0.0000
     16 H           5.7873   -0.8137    1.2129 H       1  UNL1        0.0000
     17 H           4.9050   -0.7235    2.7197 H       1  UNL1        0.0000
     18 C           2.8060    0.9937    4.1644 C.3     1  UNL1        0.0000
     19 H           2.2354    1.8025    3.7199 H       1  UNL1        0.0000
     20 H           2.1721    0.5244    4.9092 H       1  UNL1        0.0000
     21 H           2.9986    0.2599    3.3912 H       1  UNL1        0.0000
     22 C           5.2906    0.2003    5.8647 C.3     1  UNL1        0.0000
     23 H           6.1452    0.5403    6.4405 H       1  UNL1        0.0000
     24 H           5.6462   -0.5376    5.1532 H       1  UNL1        0.0000
     25 H           4.6158   -0.3040    6.5497 H       1  UNL1        0.0000
     26 C           3.8030    2.9717    6.2486 C.3     1  UNL1        0.0000
     27 H           4.0058    3.9793    5.8959 H       1  UNL1        0.0000
     28 H           4.2866    2.8654    7.2144 H       1  UNL1        0.0000
     29 H           2.7321    2.8939    6.4115 H       1  UNL1        0.0000
     30 CL          6.9624    3.2749    6.1838 Cl      1  UNL1        0.0000
     31 CL          8.2120    1.3364    4.2142 Cl      1  UNL1        0.0000
@<TRIPOS>BOND
     1     9     6    1
     2    13    10    1
     3    11    10    1
     4     8     6    1
     5    10    12    1
     6    10     2    1
     7     6     7    1
     8     6     2    1
     9    16    14    1
    10     2    14    1
    11     2     4    1
    12    14    15    1
    13    14    17    1
    14    21    18    1
    15     5     4    1
    16     4     1    1
    17     4     3    1
    18    19    18    1
    19    18    20    1
    20    18     3    1
    21     1    31    1
    22     1    30    1
    23     3    22    1
    24     3    26    1
    25    24    22    1
    26    22    23    1
    27    22    25    1
    28    27    26    1
    29    26    29    1
    30    26    28    1
