@<TRIPOS>MOLECULE
1
 13 12 0 0 0
SMALL
GASTEIGER

@<TRIPOS>ATOM
      1 P           8.1470    9.3698    4.9368 P.3     1  UNL1       -0.1154
      2 C           6.7664    9.6233    3.7464 C.3     1  UNL1       -0.0447
      3 H           5.8238    9.7129    4.2819 H       1  UNL1        0.0277
      4 H           6.7078    8.7779    3.0639 H       1  UNL1        0.0277
      5 H           6.9393   10.5356    3.1749 H       1  UNL1        0.0277
      6 C           8.1468   11.0230    5.7276 C.3     1  UNL1       -0.0447
      7 H           8.1467   11.8089    4.9710 H       1  UNL1        0.0277
      8 H           7.2699   11.1151    6.3662 H       1  UNL1        0.0277
      9 C           9.5280    9.6236    3.7468 C.3     1  UNL1       -0.0447
     10 H          10.4704    9.7141    4.2826 H       1  UNL1        0.0277
     11 H           9.5874    8.7779    3.0648 H       1  UNL1        0.0277
     12 H           9.3548   10.5355    3.1748 H       1  UNL1        0.0277
     13 H           9.0233   11.1154    6.3666 H       1  UNL1        0.0277
@<TRIPOS>BOND
     1     4     2    1
     2    11     9    1
     3    12     9    1
     4     5     2    1
     5     2     3    1
     6     2     1    1
     7     9    10    1
     8     9     1    1
     9     1     6    1
    10     7     6    1
    11     6     8    1
    12     6    13    1
