@<TRIPOS>MOLECULE
1
 13 12 0 0 0
SMALL
GASTEIGER

@<TRIPOS>ATOM
      1 P           5.8446    7.6052    6.6633 P.3     1  UNL1       -0.1154
      2 C           4.6102    7.1057    5.3844 C.3     1  UNL1       -0.0447
      3 H           4.9300    6.1983    4.8794 H       1  UNL1        0.0277
      4 H           4.5147    7.8945    4.6411 H       1  UNL1        0.0277
      5 H           3.6414    6.9400    5.8546 H       1  UNL1        0.0277
      6 C           5.3177    6.5873    8.0909 C.3     1  UNL1       -0.0447
      7 H           5.8633    6.9535    8.9614 H       1  UNL1        0.0277
      8 H           5.5838    5.5459    7.9257 H       1  UNL1        0.0277
      9 H           4.2442    6.6809    8.2599 H       1  UNL1        0.0277
     10 C           5.0666    9.1882    7.1806 C.3     1  UNL1       -0.0447
     11 H           5.1479    9.9367    6.3939 H       1  UNL1        0.0277
     12 H           5.5843    9.5513    8.0677 H       1  UNL1        0.0277
     13 H           4.0138    9.0140    7.4071 H       1  UNL1        0.0277
@<TRIPOS>BOND
     1     4     2    1
     2     3     2    1
     3     2     5    1
     4     2     1    1
     5    11    10    1
     6     1    10    1
     7     1     6    1
     8    10    13    1
     9    10    12    1
    10     8     6    1
    11     6     9    1
    12     6     7    1
