@<TRIPOS>MOLECULE
1
 13 12 0 0 0
SMALL
GASTEIGER

@<TRIPOS>ATOM
      1 P          10.4493    7.6049    6.6633 P.3     1  UNL1       -0.1154
      2 C          11.6837    7.1058    5.3842 C.3     1  UNL1       -0.0447
      3 H          11.3639    6.1985    4.8791 H       1  UNL1        0.0277
      4 H          11.7791    7.8948    4.6412 H       1  UNL1        0.0277
      5 H          12.6526    6.9401    5.8544 H       1  UNL1        0.0277
      6 C          10.9765    6.5870    8.0907 C.3     1  UNL1       -0.0447
      7 H          10.4309    6.9528    8.9614 H       1  UNL1        0.0277
      8 H          10.7106    5.5456    7.9253 H       1  UNL1        0.0277
      9 H          12.0501    6.6807    8.2598 H       1  UNL1        0.0277
     10 C          11.2272    9.1879    7.1809 C.3     1  UNL1       -0.0447
     11 H          11.1455    9.9365    6.3943 H       1  UNL1        0.0277
     12 H          10.7098    9.5509    8.0682 H       1  UNL1        0.0277
     13 H          12.2801    9.0140    7.4069 H       1  UNL1        0.0277
@<TRIPOS>BOND
     1     4     2    1
     2     3     2    1
     3     2     5    1
     4     2     1    1
     5    11    10    1
     6     1    10    1
     7     1     6    1
     8    10    13    1
     9    10    12    1
    10     8     6    1
    11     6     9    1
    12     6     7    1
