@<TRIPOS>MOLECULE
2
 44 44 0 0 0
SMALL
GASTEIGER

@<TRIPOS>ATOM
      1 BR          6.5736    3.9556    1.8910 Br      1  UNL1        0.0000
      2 P           8.1227    4.5154    3.3768 P.3     1  UNL1        0.0000
      3 SI          6.2235    7.1463    3.1627 Si      1  UNL1        0.0000
      4 SI          8.9690    6.9687    5.0194 Si      1  UNL1        0.0000
      5 C           7.4973    6.0530    4.1467 C.3     1  UNL1        0.0000
      6 H           6.9023    5.6585    4.9819 H       1  UNL1        0.0000
      7 C           4.5231    6.2759    3.1307 C.3     1  UNL1        0.0000
      8 H           3.7381    6.9600    3.4393 H       1  UNL1        0.0000
      9 H           4.4882    5.4199    3.7988 H       1  UNL1        0.0000
     10 H           4.2739    5.9117    2.1394 H       1  UNL1        0.0000
     11 C           5.9479    8.7636    4.1309 C.3     1  UNL1        0.0000
     12 H           6.8437    9.3635    4.2334 H       1  UNL1        0.0000
     13 H           5.5600    8.5698    5.1250 H       1  UNL1        0.0000
     14 H           5.2114    9.3658    3.6098 H       1  UNL1        0.0000
     15 C           6.8329    7.5934    1.4113 C.3     1  UNL1        0.0000
     16 H           6.7876    6.7455    0.7351 H       1  UNL1        0.0000
     17 H           7.8460    7.9844    1.4088 H       1  UNL1        0.0000
     18 H           6.1899    8.3637    0.9970 H       1  UNL1        0.0000
     19 C           8.3046    7.7378    6.6291 C.3     1  UNL1        0.0000
     20 H           9.1209    8.1715    7.1977 H       1  UNL1        0.0000
     21 H           7.8307    6.9921    7.2603 H       1  UNL1        0.0000
     22 H           7.5816    8.5234    6.4467 H       1  UNL1        0.0000
     23 C           9.7051    8.3159    3.8815 C.3     1  UNL1        0.0000
     24 H           8.9498    9.0083    3.5278 H       1  UNL1        0.0000
     25 H          10.2118    7.9134    3.0100 H       1  UNL1        0.0000
     26 H          10.4366    8.8922    4.4391 H       1  UNL1        0.0000
     27 C          10.3987    5.8160    5.5416 C.3     1  UNL1        0.0000
     28 H          11.2575    6.4061    5.8506 H       1  UNL1        0.0000
     29 H          10.7310    5.1548    4.7473 H       1  UNL1        0.0000
     30 H          10.1196    5.1927    6.3863 H       1  UNL1        0.0000
     31 C           9.3745    5.0864    2.1240 C.3     1  UNL1        0.0000
     32 H           8.8821    5.7407    1.4001 H       1  UNL1        0.0000
     33 H          10.1396    5.6510    2.6577 H       1  UNL1        0.0000
     34 C           9.9763    3.8811    1.4686 C.ar    1  UNL1        0.0000
     35 C          11.0320    3.2184    2.0870 C.ar    1  UNL1        0.0000
     36 H          11.4636    3.6302    2.9888 H       1  UNL1        0.0000
     37 C          11.5613    2.0650    1.5376 C.ar    1  UNL1        0.0000
     38 H          12.3788    1.5624    2.0332 H       1  UNL1        0.0000
     39 C          11.0389    1.5570    0.3603 C.ar    1  UNL1        0.0000
     40 H          11.4418    0.6497   -0.0633 H       1  UNL1        0.0000
     41 C          10.0038    2.2217   -0.2742 C.ar    1  UNL1        0.0000
     42 H           9.5980    1.8373   -1.1975 H       1  UNL1        0.0000
     43 C           9.4765    3.3782    0.2731 C.ar    1  UNL1        0.0000
     44 H           8.6705    3.8889   -0.2334 H       1  UNL1        0.0000
@<TRIPOS>BOND
     1    42    41    1
     2    41    43   ar
     3    41    39   ar
     4    44    43    1
     5    40    39    1
     6    43    34   ar
     7    39    37   ar
     8    16    15    1
     9    18    15    1
    10    32    31    1
    11    17    15    1
    12    15     3    1
    13    34    35   ar
    14    34    31    1
    15    37    38    1
    16    37    35   ar
    17     1     2    1
    18    35    36    1
    19    31    33    1
    20    31     2    1
    21    10     7    1
    22    25    23    1
    23     7     3    1
    24     7     8    1
    25     7     9    1
    26     3    11    1
    27     3     5    1
    28     2     5    1
    29    24    23    1
    30    14    11    1
    31    23    26    1
    32    23     4    1
    33    11    12    1
    34    11    13    1
    35     5     6    1
    36     5     4    1
    37    29    27    1
    38     4    27    1
    39     4    19    1
    40    27    28    1
    41    27    30    1
    42    22    19    1
    43    19    20    1
    44    19    21    1
