@<TRIPOS>MOLECULE
2
 31 30 0 0 0
SMALL
GASTEIGER

@<TRIPOS>ATOM
      1 BR          4.7061    4.3314    3.7304 Br      1  UNL1        0.0000
      2 P           2.6529    4.0720    3.0372 P.3     1  UNL1        0.0000
      3 H           2.7331    5.1957    2.1941 H       1  UNL1        0.0000
      4 SI          1.4280    6.6408    4.2575 Si      1  UNL1        0.0000
      5 SI          2.0246    3.9033    6.0883 Si      1  UNL1        0.0000
      6 C           1.6119    4.7205    4.3767 C.3     1  UNL1        0.0000
      7 H           0.6276    4.3151    4.1086 H       1  UNL1        0.0000
      8 C           0.4520    6.9806    2.6504 C.3     1  UNL1        0.0000
      9 H           0.4236    8.0428    2.4279 H       1  UNL1        0.0000
     10 H          -0.5764    6.6402    2.7377 H       1  UNL1        0.0000
     11 H           0.8833    6.4807    1.7864 H       1  UNL1        0.0000
     12 C           3.1282    7.4981    4.2124 C.3     1  UNL1        0.0000
     13 H           3.0071    8.5759    4.2662 H       1  UNL1        0.0000
     14 H           3.6716    7.2824    3.2963 H       1  UNL1        0.0000
     15 H           3.7625    7.1970    5.0404 H       1  UNL1        0.0000
     16 C           0.3906    7.2752    5.7188 C.3     1  UNL1        0.0000
     17 H           0.8710    7.1061    6.6754 H       1  UNL1        0.0000
     18 H          -0.5863    6.8044    5.7489 H       1  UNL1        0.0000
     19 H           0.2325    8.3432    5.6159 H       1  UNL1        0.0000
     20 C           0.3564    3.7464    6.9914 C.3     1  UNL1        0.0000
     21 H           0.5048    3.3199    7.9773 H       1  UNL1        0.0000
     22 H          -0.3300    3.0973    6.4563 H       1  UNL1        0.0000
     23 H          -0.1295    4.7066    7.1208 H       1  UNL1        0.0000
     24 C           3.2456    4.9793    7.0786 C.3     1  UNL1        0.0000
     25 H           2.8859    5.9946    7.2074 H       1  UNL1        0.0000
     26 H           4.2238    5.0275    6.6105 H       1  UNL1        0.0000
     27 H           3.3806    4.5545    8.0683 H       1  UNL1        0.0000
     28 C           2.7577    2.1550    5.8936 C.3     1  UNL1        0.0000
     29 H           3.7695    2.1743    5.4990 H       1  UNL1        0.0000
     30 H           2.1537    1.5275    5.2419 H       1  UNL1        0.0000
     31 H           2.8047    1.6614    6.8601 H       1  UNL1        0.0000
@<TRIPOS>BOND
     1    11     8    1
     2     3     2    1
     3     9     8    1
     4     8    10    1
     5     8     4    1
     6     2     1    1
     7     2     6    1
     8    14    12    1
     9     7     6    1
    10    12     4    1
    11    12    13    1
    12    12    15    1
    13     4     6    1
    14     4    16    1
    15     6     5    1
    16    30    28    1
    17    29    28    1
    18    19    16    1
    19    16    18    1
    20    16    17    1
    21    28     5    1
    22    28    31    1
    23     5    20    1
    24     5    24    1
    25    22    20    1
    26    26    24    1
    27    20    23    1
    28    20    21    1
    29    24    25    1
    30    24    27    1
