@<TRIPOS>MOLECULE
1
 13 12 0 0 0
SMALL
GASTEIGER

@<TRIPOS>ATOM
      1 P           8.4075    3.8110    0.7689 P.3     1  UNL1       -0.1154
      2 C          10.0306    3.7214    1.6685 C.3     1  UNL1       -0.0447
      3 H          10.5563    4.6738    1.6082 H       1  UNL1        0.0277
      4 H          10.6562    2.9580    1.2101 H       1  UNL1        0.0277
      5 H           9.8664    3.4625    2.7132 H       1  UNL1        0.0277
      6 C           8.7526    5.3130   -0.2664 C.3     1  UNL1       -0.0447
      7 H           9.7820    5.2815   -0.6252 H       1  UNL1        0.0277
      8 H           8.5931    6.2191    0.3111 H       1  UNL1        0.0277
      9 H           8.0838    5.3329   -1.1260 H       1  UNL1        0.0277
     10 C           8.7839    2.5908   -0.5606 C.3     1  UNL1       -0.0447
     11 H           9.7880    2.7687   -0.9474 H       1  UNL1        0.0277
     12 H           8.0714    2.6979   -1.3768 H       1  UNL1        0.0277
     13 H           8.7148    1.5849   -0.1529 H       1  UNL1        0.0277
@<TRIPOS>BOND
     1    12    10    1
     2     9     6    1
     3    11    10    1
     4     7     6    1
     5    10    13    1
     6    10     1    1
     7     6     8    1
     8     6     1    1
     9     1     2    1
    10     4     2    1
    11     3     2    1
    12     2     5    1
