@<TRIPOS>MOLECULE
1
 13 12 0 0 0
SMALL
GASTEIGER

@<TRIPOS>ATOM
      1 P           2.8826    2.7597    1.1514 P.3     1  UNL1       -0.1154
      2 C           4.6418    3.1992    0.8465 C.3     1  UNL1       -0.0447
      3 H           4.7873    4.2642    1.0239 H       1  UNL1        0.0277
      4 H           4.9106    2.9647   -0.1842 H       1  UNL1        0.0277
      5 H           5.2768    2.6382    1.5291 H       1  UNL1        0.0277
      6 C           2.8723    1.1346    0.2879 C.3     1  UNL1       -0.0447
      7 H           1.8934    0.6647    0.3431 H       1  UNL1        0.0277
      8 H           3.5885    0.4820    0.7836 H       1  UNL1        0.0277
      9 H           3.1559    1.2667   -0.7563 H       1  UNL1        0.0277
     10 C           2.1202    3.8359   -0.1382 C.3     1  UNL1       -0.0447
     11 H           2.0632    4.8549    0.2464 H       1  UNL1        0.0277
     12 H           1.1184    3.4944   -0.3942 H       1  UNL1        0.0277
     13 H           2.7416    3.8235   -1.0344 H       1  UNL1        0.0277
@<TRIPOS>BOND
     1    13    10    1
     2     9     6    1
     3    12    10    1
     4     4     2    1
     5    10    11    1
     6    10     1    1
     7     6     7    1
     8     6     8    1
     9     6     1    1
    10     2     3    1
    11     2     1    1
    12     2     5    1
