@<TRIPOS>MOLECULE
1
 13 12 0 0 0
SMALL
GASTEIGER

@<TRIPOS>ATOM
      1 P           2.9935    2.7293    1.1356 P.3     1  UNL1       -0.1154
      2 C           4.7542    3.1731    0.8526 C.3     1  UNL1       -0.0447
      3 H           4.8831    4.2418    1.0230 H       1  UNL1        0.0277
      4 H           5.0393    2.9276   -0.1713 H       1  UNL1        0.0277
      5 H           5.3821    2.6233    1.5513 H       1  UNL1        0.0277
      6 C           3.0034    1.0796    0.3218 C.3     1  UNL1       -0.0447
      7 H           2.0259    0.6075    0.3809 H       1  UNL1        0.0277
      8 H           3.7169    0.4444    0.8425 H       1  UNL1        0.0277
      9 H           3.2963    1.1827   -0.7230 H       1  UNL1        0.0277
     10 C           2.2464    3.7550   -0.2020 C.3     1  UNL1       -0.0447
     11 H           2.1651    4.7843    0.1484 H       1  UNL1        0.0277
     12 H           1.2579    3.3877   -0.4735 H       1  UNL1        0.0277
     13 H           2.8934    3.7228   -1.0797 H       1  UNL1        0.0277
@<TRIPOS>BOND
     1    13    10    1
     2     9     6    1
     3    12    10    1
     4    10    11    1
     5    10     1    1
     6     4     2    1
     7     6     7    1
     8     6     8    1
     9     6     1    1
    10     2     3    1
    11     2     1    1
    12     2     5    1
