@<TRIPOS>MOLECULE
1
 13 12 0 0 0
SMALL
GASTEIGER

@<TRIPOS>ATOM
      1 P           2.6717    0.8746    9.8057 P.3     1  UNL1       -0.1154
      2 C           1.1550   -0.1144    9.4566 C.3     1  UNL1       -0.0447
      3 C           3.6742    0.1682    8.3710 C.3     1  UNL1       -0.0447
      4 C           3.4540   -0.1042   11.1416 C.3     1  UNL1       -0.0447
      5 H           0.4675   -0.0520   10.2980 H       1  UNL1        0.0277
      6 H           1.4233   -1.1566    9.2804 H       1  UNL1        0.0277
      7 H           0.6670    0.2801    8.5640 H       1  UNL1        0.0277
      8 H           4.7161    0.4679    8.4838 H       1  UNL1        0.0277
      9 H           3.2929    0.5911    7.4397 H       1  UNL1        0.0277
     10 H           3.6225   -0.9204    8.3155 H       1  UNL1        0.0277
     11 H           4.3014    0.4568   11.5319 H       1  UNL1        0.0277
     12 H           3.7911   -1.0682   10.7582 H       1  UNL1        0.0277
     13 H           2.7395   -0.2518   11.9458 H       1  UNL1        0.0277
@<TRIPOS>BOND
     1     9     3    1
     2    10     3    1
     3     3     8    1
     4     3     1    1
     5     7     2    1
     6     6     2    1
     7     2     1    1
     8     2     5    1
     9     1     4    1
    10    12     4    1
    11     4    11    1
    12     4    13    1
