@<TRIPOS>MOLECULE
1
 13 12 0 0 0
SMALL
GASTEIGER

@<TRIPOS>ATOM
      1 P           1.7756    2.5451    7.0531 P.3     1  UNL1       -0.1154
      2 C           2.7101    2.2746    5.4937 C.3     1  UNL1       -0.0447
      3 C           1.5641    0.7872    7.5691 C.3     1  UNL1       -0.0447
      4 C           3.1625    2.9655    8.1916 C.3     1  UNL1       -0.0447
      5 H           2.0393    1.8330    4.7607 H       1  UNL1        0.0277
      6 H           3.5632    1.6170    5.6573 H       1  UNL1        0.0277
      7 H           3.0526    3.2316    5.1063 H       1  UNL1        0.0277
      8 H           1.0714    0.7604    8.5395 H       1  UNL1        0.0277
      9 H           2.5300    0.2875    7.6385 H       1  UNL1        0.0277
     10 H           0.9406    0.2666    6.8468 H       1  UNL1        0.0277
     11 H           2.7831    3.0038    9.2119 H       1  UNL1        0.0277
     12 H           3.5646    3.9438    7.9384 H       1  UNL1        0.0277
     13 H           3.9559    2.2213    8.1266 H       1  UNL1        0.0277
@<TRIPOS>BOND
     1     5     2    1
     2     7     2    1
     3     2     6    1
     4     2     1    1
     5    10     3    1
     6     1     3    1
     7     1     4    1
     8     3     9    1
     9     3     8    1
    10    12     4    1
    11    13     4    1
    12     4    11    1
