@<TRIPOS>MOLECULE
1
 14 14 0 0 0
SMALL
GASTEIGER

@<TRIPOS>ATOM
      1 P           6.0615    8.0972    3.4269 P.3     1  UNL1        0.0776
      2 N           5.6815    7.9235    1.7155 N.3     1  UNL1       -0.1870
      3 C           6.8389    7.4319    1.9782 C.3     1  UNL1        0.1188
      4 C           7.8675    6.6790    1.3420 C.ar    1  UNL1       -0.0211
      5 C           8.7678    5.9454    2.1181 C.ar    1  UNL1       -0.0566
      6 H           8.6744    5.9614    3.1949 H       1  UNL1        0.0621
      7 C           9.7455    5.1872    1.5055 C.ar    1  UNL1       -0.0614
      8 H          10.4349    4.6115    2.1044 H       1  UNL1        0.0618
      9 C           9.8434    5.1672    0.1221 C.ar    1  UNL1       -0.0617
     10 H          10.6141    4.5792   -0.3534 H       1  UNL1        0.0618
     11 C           8.9524    5.8947   -0.6537 C.ar    1  UNL1       -0.0614
     12 H           9.0299    5.8697   -1.7303 H       1  UNL1        0.0618
     13 C           7.9613    6.6441   -0.0527 C.ar    1  UNL1       -0.0566
     14 H           7.2549    7.2095   -0.6410 H       1  UNL1        0.0621
@<TRIPOS>BOND
     1    12    11    1
     2    11    13   ar
     3    11     9   ar
     4    14    13    1
     5    10     9    1
     6    13     4   ar
     7     9     7   ar
     8     4     3    1
     9     4     5   ar
    10     7     8    1
    11     7     5   ar
    12     2     3    1
    13     2     1    1
    14     5     6    1
