@<TRIPOS>MOLECULE
1
 14 14 0 0 0
SMALL
GASTEIGER

@<TRIPOS>ATOM
      1 P           1.1247    3.1191    3.3753 P.3     1  UNL1        0.0776
      2 N           1.5823    2.9198    5.0593 N.3     1  UNL1       -0.1870
      3 C           0.4143    2.4311    4.8418 C.3     1  UNL1        0.1188
      4 C          -0.5799    1.6694    5.5226 C.ar    1  UNL1       -0.0211
      5 C          -0.5689    1.5843    6.9180 C.ar    1  UNL1       -0.0566
      6 H           0.1887    2.1186    7.4706 H       1  UNL1        0.0621
      7 C          -1.5222    0.8238    7.5645 C.ar    1  UNL1       -0.0614
      8 H          -1.5185    0.7588    8.6422 H       1  UNL1        0.0618
      9 C          -2.4795    0.1365    6.8322 C.ar    1  UNL1       -0.0617
     10 H          -3.2203   -0.4603    7.3429 H       1  UNL1        0.0618
     11 C          -2.4862    0.2074    5.4471 C.ar    1  UNL1       -0.0614
     12 H          -3.2273   -0.3370    4.8815 H       1  UNL1        0.0618
     13 C          -1.5459    0.9760    4.7906 C.ar    1  UNL1       -0.0566
     14 H          -1.5339    1.0325    3.7107 H       1  UNL1        0.0621
@<TRIPOS>BOND
     1     1     2    1
     2    14    13    1
     3    13    11   ar
     4    13     4   ar
     5     3     2    1
     6     3     4    1
     7    12    11    1
     8    11     9   ar
     9     4     5   ar
    10     9    10    1
    11     9     7   ar
    12     5     6    1
    13     5     7   ar
    14     7     8    1
