@<TRIPOS>MOLECULE
1
 43 45 0 0 0
SMALL
GASTEIGER

@<TRIPOS>ATOM
      1 P          26.9293    8.9791    8.1325 P.3     1  UNL1       -0.0131
      2 C          26.1974    7.1673   10.1800 C.ar    1  UNL1       -0.0533
      3 H          25.4812    6.7509    9.4859 H       1  UNL1        0.0624
      4 C          26.9577    8.2701    9.8139 C.ar    1  UNL1       -0.0147
      5 C          28.0200    8.2156   11.9735 C.ar    1  UNL1       -0.0582
      6 H          28.7327    8.6307   12.6728 H       1  UNL1        0.0620
      7 C          27.8734    8.7881   10.7269 C.ar    1  UNL1       -0.0533
      8 H          28.4697    9.6455   10.4494 H       1  UNL1        0.0624
      9 C          27.2621    7.1096   12.3445 C.ar    1  UNL1       -0.0504
     10 C          26.3449    6.6023   11.4338 C.ar    1  UNL1       -0.0582
     11 H          25.7347    5.7528   11.7093 H       1  UNL1        0.0620
     12 C          27.4579    6.4636   13.6819 C.3     1  UNL1       -0.0397
     13 H          27.7054    7.2043   14.4392 H       1  UNL1        0.0278
     14 H          28.2812    5.7500   13.6274 H       1  UNL1        0.0278
     15 H          26.5643    5.9262   13.9905 H       1  UNL1        0.0278
     16 C          25.8904   14.9301    9.0764 C.3     1  UNL1       -0.0397
     17 H          25.2211   15.3195    8.3101 H       1  UNL1        0.0278
     18 H          26.8299   15.4771    9.0047 H       1  UNL1        0.0278
     19 H          25.4507   15.1208   10.0522 H       1  UNL1        0.0278
     20 C          26.5909   10.7376    8.4634 C.ar    1  UNL1       -0.0147
     21 C          26.0226   11.1857    9.6510 C.ar    1  UNL1       -0.0533
     22 H          25.7592   10.4787   10.4255 H       1  UNL1        0.0624
     23 C          26.9112   11.6630    7.4741 C.ar    1  UNL1       -0.0533
     24 H          27.3308   11.3122    6.5415 H       1  UNL1        0.0624
     25 C          25.7964   12.5361    9.8458 C.ar    1  UNL1       -0.0582
     26 H          25.3569   12.8723   10.7748 H       1  UNL1        0.0620
     27 C          26.1250   13.4654    8.8670 C.ar    1  UNL1       -0.0504
     28 C          26.6794   13.0086    7.6754 C.ar    1  UNL1       -0.0582
     29 H          26.9320   13.7196    6.9016 H       1  UNL1        0.0620
     30 C          25.3526    7.1183    6.8821 C.ar    1  UNL1       -0.0533
     31 H          26.2955    6.5865    6.8058 H       1  UNL1        0.0624
     32 C          24.1937    6.5766    6.3684 C.ar    1  UNL1       -0.0582
     33 H          24.2145    5.6072    5.8897 H       1  UNL1        0.0620
     34 C          22.9912    7.2736    6.4482 C.ar    1  UNL1       -0.0504
     35 C          25.3372    8.3687    7.4954 C.ar    1  UNL1       -0.0147
     36 C          22.9839    8.5209    7.0575 C.ar    1  UNL1       -0.0582
     37 H          22.0585    9.0764    7.1210 H       1  UNL1        0.0620
     38 C          24.1430    9.0693    7.5786 C.ar    1  UNL1       -0.0533
     39 H          24.1176   10.0462    8.0405 H       1  UNL1        0.0624
     40 C          21.7418    6.6909    5.8613 C.3     1  UNL1       -0.0397
     41 H          20.8609    7.2255    6.2078 H       1  UNL1        0.0278
     42 H          21.6445    5.6397    6.1272 H       1  UNL1        0.0278
     43 H          21.7769    6.7576    4.7737 H       1  UNL1        0.0278
@<TRIPOS>BOND
     1    43    40    1
     2    40    42    1
     3    40    41    1
     4    40    34    1
     5    33    32    1
     6    32    34   ar
     7    32    30   ar
     8    34    36   ar
     9    24    23    1
    10    31    30    1
    11    30    35   ar
    12    29    28    1
    13    36    37    1
    14    36    38   ar
    15    23    28   ar
    16    23    20   ar
    17    35    38   ar
    18    35     1    1
    19    38    39    1
    20    28    27   ar
    21     1    20    1
    22     1     4    1
    23    17    16    1
    24    20    21   ar
    25    27    16    1
    26    27    25   ar
    27    18    16    1
    28    16    19    1
    29     3     2    1
    30    21    25   ar
    31    21    22    1
    32     4     2   ar
    33     4     7   ar
    34    25    26    1
    35     2    10   ar
    36     8     7    1
    37     7     5   ar
    38    10    11    1
    39    10     9   ar
    40     5     9   ar
    41     5     6    1
    42     9    12    1
    43    14    12    1
    44    12    15    1
    45    12    13    1
