@<TRIPOS>MOLECULE
1
 43 45 0 0 0
SMALL
GASTEIGER

@<TRIPOS>ATOM
      1 P          30.2715    7.6600    5.3533 P.3     1  UNL1       -0.0131
      2 C          32.4329    7.0813    7.0062 C.ar    1  UNL1       -0.0533
      3 H          31.7485    6.4016    7.4938 H       1  UNL1        0.0624
      4 C          34.1814    8.8262    5.7726 C.ar    1  UNL1       -0.0582
      5 H          34.8601    9.5141    5.2874 H       1  UNL1        0.0620
      6 C          34.6057    8.1201    6.8902 C.ar    1  UNL1       -0.0504
      7 C          32.9009    8.6676    5.2743 C.ar    1  UNL1       -0.0533
      8 H          32.5921    9.2283    4.4029 H       1  UNL1        0.0624
      9 C          32.0123    7.7885    5.8811 C.ar    1  UNL1       -0.0147
     10 C          33.7126    7.2415    7.4958 C.ar    1  UNL1       -0.0582
     11 H          34.0265    6.6832    8.3670 H       1  UNL1        0.0620
     12 C          35.9936    8.2842    7.4303 C.3     1  UNL1       -0.0397
     13 H          36.6106    7.4322    7.1428 H       1  UNL1        0.0278
     14 H          35.9790    8.3333    8.5173 H       1  UNL1        0.0278
     15 H          36.4584    9.1873    7.0425 H       1  UNL1        0.0278
     16 C          30.3808    8.2316    3.6237 C.ar    1  UNL1       -0.0147
     17 C          30.1171    9.5656    3.3348 C.ar    1  UNL1       -0.0533
     18 H          29.8079   10.2303    4.1276 H       1  UNL1        0.0624
     19 C          30.8606    7.8536    1.3003 C.ar    1  UNL1       -0.0582
     20 H          31.1491    7.1808    0.5043 H       1  UNL1        0.0620
     21 C          30.5980    9.1873    1.0047 C.ar    1  UNL1       -0.0504
     22 C          30.2263   10.0352    2.0395 C.ar    1  UNL1       -0.0582
     23 H          30.0134   11.0737    1.8285 H       1  UNL1        0.0620
     24 C          30.7548    7.3768    2.5920 C.ar    1  UNL1       -0.0533
     25 H          30.9596    6.3358    2.7996 H       1  UNL1        0.0624
     26 C          30.7060    9.6815   -0.4057 C.3     1  UNL1       -0.0397
     27 H          29.9444    9.2110   -1.0270 H       1  UNL1        0.0278
     28 H          31.6789    9.4304   -0.8258 H       1  UNL1        0.0278
     29 H          30.5710   10.7590   -0.4528 H       1  UNL1        0.0278
     30 C          30.0303    5.8663    5.1265 C.ar    1  UNL1       -0.0147
     31 C          31.0409    4.9139    5.1200 C.ar    1  UNL1       -0.0533
     32 H          32.0731    5.2169    5.2252 H       1  UNL1        0.0624
     33 C          29.4125    3.1536    4.8372 C.ar    1  UNL1       -0.0504
     34 C          30.7289    3.5734    4.9800 C.ar    1  UNL1       -0.0582
     35 H          31.5234    2.8399    4.9828 H       1  UNL1        0.0620
     36 C          28.7094    5.4519    4.9694 C.ar    1  UNL1       -0.0533
     37 H          27.9242    6.2005    4.9593 H       1  UNL1        0.0624
     38 C          28.4056    4.1136    4.8237 C.ar    1  UNL1       -0.0582
     39 H          27.3768    3.8030    4.7040 H       1  UNL1        0.0620
     40 C          29.0815    1.7009    4.6770 C.3     1  UNL1       -0.0397
     41 H          29.8793    1.0737    5.0677 H       1  UNL1        0.0278
     42 H          28.9495    1.4632    3.6208 H       1  UNL1        0.0278
     43 H          28.1547    1.4563    5.1918 H       1  UNL1        0.0278
@<TRIPOS>BOND
     1    27    26    1
     2    28    26    1
     3    29    26    1
     4    26    21    1
     5    20    19    1
     6    21    19   ar
     7    21    22   ar
     8    19    24   ar
     9    23    22    1
    10    22    17   ar
    11    24    25    1
    12    24    16   ar
    13    17    16   ar
    14    17    18    1
    15    42    40    1
    16    16     1    1
    17     8     7    1
    18    40    33    1
    19    40    41    1
    20    40    43    1
    21    39    38    1
    22    38    33   ar
    23    38    36   ar
    24    33    34   ar
    25    37    36    1
    26    36    30   ar
    27    34    35    1
    28    34    31   ar
    29    31    30   ar
    30    31    32    1
    31    30     1    1
    32     7     4   ar
    33     7     9   ar
    34     5     4    1
    35     1     9    1
    36     4     6   ar
    37     9     2   ar
    38     6    12    1
    39     6    10   ar
    40     2     3    1
    41     2    10   ar
    42    15    12    1
    43    13    12    1
    44    12    14    1
    45    10    11    1
