@<TRIPOS>MOLECULE
1
 15 15 0 0 0
SMALL
GASTEIGER

@<TRIPOS>ATOM
      1 P          -0.4844    5.3865    3.7432 P.3     1  UNL1        0.0777
      2 N          -1.6852    5.3447    5.0086 N.3     1  UNL1       -0.1854
      3 N          -1.2025    7.2531    7.4321 N.ar    1  UNL1       -0.3518
      4 C          -0.7758    6.2371    5.2637 C.3     1  UNL1        0.1365
      5 C          -0.4432    7.1219    6.2888 C.ar    1  UNL1        0.0453
      6 C           0.6552    7.9747    6.4102 C.ar    1  UNL1       -0.0389
      7 H           1.4329    8.0956    5.6835 H       1  UNL1        0.0636
      8 C           0.5425    8.6170    7.6378 C.ar    1  UNL1       -0.0439
      9 H           1.2196    9.3371    8.0515 H       1  UNL1        0.0633
     10 C          -0.6120    8.1485    8.2380 C.ar    1  UNL1        0.0046
     11 H          -1.0327    8.4040    9.1917 H       1  UNL1        0.0809
     12 C          -2.4303    6.5556    7.6869 C.3     1  UNL1        0.0116
     13 H          -2.6227    6.5324    8.7583 H       1  UNL1        0.0456
     14 H          -2.3612    5.5377    7.3029 H       1  UNL1        0.0456
     15 H          -3.2649    7.0520    7.1848 H       1  UNL1        0.0456
@<TRIPOS>BOND
     1     1     2    1
     2     2     4    1
     3     4     5    1
     4     7     6    1
     5     5     6   ar
     6     5     3   ar
     7     6     8   ar
     8    15    12    1
     9    14    12    1
    10     3    12    1
    11     3    10   ar
    12     8     9    1
    13     8    10   ar
    14    12    13    1
    15    10    11    1
