@<TRIPOS>MOLECULE
1
 44 43 0 0 0
SMALL
GASTEIGER

@<TRIPOS>ATOM
      1 P           3.1830    1.0450   15.4825 P.3     1  UNL1        0.0000
      2 SI          5.2174    2.9053   16.7924 Si      1  UNL1        0.0000
      3 SI          6.0731    0.3864   14.8099 Si      1  UNL1        0.0000
      4 O           3.5505   -0.2253   16.4038 O.3     1  UNL1        0.0000
      5 C           2.4959   -1.0368   16.9073 C.3     1  UNL1        0.0000
      6 C           3.0974   -2.2447   17.6134 C.3     1  UNL1        0.0000
      7 C           3.7970   -3.1911   16.6398 C.3     1  UNL1        0.0000
      8 C           4.4070   -4.3858   17.3613 C.3     1  UNL1        0.0000
      9 C           4.8241    1.7701   15.2929 C.3     1  UNL1        0.0000
     10 C           4.8971    2.0106   18.4444 C.3     1  UNL1        0.0000
     11 C           7.0262    3.4993   16.7290 C.3     1  UNL1        0.0000
     12 C           4.0938    4.4429   16.6315 C.3     1  UNL1        0.0000
     13 C           5.2908   -0.9510   13.6998 C.3     1  UNL1        0.0000
     14 C           6.8133   -0.4342   16.3654 C.3     1  UNL1        0.0000
     15 C           7.4608    1.2201   13.8007 C.3     1  UNL1        0.0000
     16 H           1.8861   -0.4480   17.6059 H       1  UNL1        0.0000
     17 H           1.8477   -1.3623   16.0812 H       1  UNL1        0.0000
     18 H           3.8118   -1.8923   18.3604 H       1  UNL1        0.0000
     19 H           2.2958   -2.7737   18.1325 H       1  UNL1        0.0000
     20 H           4.5797   -2.6446   16.1123 H       1  UNL1        0.0000
     21 H           3.0745   -3.5418   15.8996 H       1  UNL1        0.0000
     22 H           5.1465   -4.0570   18.0883 H       1  UNL1        0.0000
     23 H           4.8950   -5.0493   16.6520 H       1  UNL1        0.0000
     24 H           3.6389   -4.9498   17.8860 H       1  UNL1        0.0000
     25 H           4.7267    2.4215   14.4193 H       1  UNL1        0.0000
     26 H           3.8981    1.5867   18.4783 H       1  UNL1        0.0000
     27 H           4.9910    2.6974   19.2804 H       1  UNL1        0.0000
     28 H           5.6013    1.2010   18.6034 H       1  UNL1        0.0000
     29 H           7.7322    2.6856   16.8488 H       1  UNL1        0.0000
     30 H           7.2091    4.2119   17.5259 H       1  UNL1        0.0000
     31 H           7.2486    3.9967   15.7912 H       1  UNL1        0.0000
     32 H           4.4115    5.0722   15.8048 H       1  UNL1        0.0000
     33 H           3.0568    4.1732   16.4510 H       1  UNL1        0.0000
     34 H           4.1223    5.0509   17.5307 H       1  UNL1        0.0000
     35 H           5.9156   -1.8391   13.6606 H       1  UNL1        0.0000
     36 H           5.1660   -0.6024   12.6791 H       1  UNL1        0.0000
     37 H           4.3148   -1.2495   14.0689 H       1  UNL1        0.0000
     38 H           6.0386   -0.8054   17.0266 H       1  UNL1        0.0000
     39 H           7.4438   -1.2729   16.0866 H       1  UNL1        0.0000
     40 H           7.4278    0.2605   16.9283 H       1  UNL1        0.0000
     41 H           7.9914    1.9692   14.3767 H       1  UNL1        0.0000
     42 H           8.1860    0.4809   13.4787 H       1  UNL1        0.0000
     43 H           7.0715    1.7034   12.9101 H       1  UNL1        0.0000
     44 H           2.6187    1.8672   16.4947 H       1  UNL1        0.0000
@<TRIPOS>BOND
     1    36    13    1
     2    43    15    1
     3    42    15    1
     4    35    13    1
     5    13    37    1
     6    13     3    1
     7    15    41    1
     8    15     3    1
     9    25     9    1
    10     3     9    1
    11     3    14    1
    12     9     1    1
    13     9     2    1
    14     1     4    1
    15     1    44    1
    16    31    11    1
    17    32    12    1
    18    21     7    1
    19    17     5    1
    20    39    14    1
    21    20     7    1
    22    14    40    1
    23    14    38    1
    24     4     5    1
    25    33    12    1
    26    12     2    1
    27    12    34    1
    28     7     8    1
    29     7     6    1
    30    23     8    1
    31    11     2    1
    32    11    29    1
    33    11    30    1
    34     2    10    1
    35     5    16    1
    36     5     6    1
    37     8    24    1
    38     8    22    1
    39     6    19    1
    40     6    18    1
    41    10    26    1
    42    10    28    1
    43    10    27    1
