@<TRIPOS>MOLECULE
1
 13 12 0 0 0
SMALL
GASTEIGER

@<TRIPOS>ATOM
      1 P           4.7314    2.4636   11.8872 P.3     1  UNL1       -0.1154
      2 C           5.1265    0.7656   11.2953 C.3     1  UNL1       -0.0447
      3 C           6.1720    3.2866   11.0911 C.3     1  UNL1       -0.0447
      4 C           3.4526    2.9154   10.6340 C.3     1  UNL1       -0.0447
      5 H           5.5171    0.8069   10.2773 H       1  UNL1        0.0277
      6 H           5.8746    0.3244   11.9537 H       1  UNL1        0.0277
      7 H           4.2311    0.1502   11.3069 H       1  UNL1        0.0277
      8 H           6.0564    4.3665   11.1214 H       1  UNL1        0.0277
      9 H           7.0821    3.0088   11.6231 H       1  UNL1        0.0277
     10 H           6.2443    2.9667   10.0504 H       1  UNL1        0.0277
     11 H           2.4488    2.8078   11.0408 H       1  UNL1        0.0277
     12 H           3.5877    3.9511   10.3267 H       1  UNL1        0.0277
     13 H           3.5618    2.2717    9.7610 H       1  UNL1        0.0277
@<TRIPOS>BOND
     1    13     4    1
     2    10     3    1
     3     5     2    1
     4    12     4    1
     5     4    11    1
     6     4     1    1
     7     3     8    1
     8     3     9    1
     9     3     1    1
    10     2     7    1
    11     2     1    1
    12     2     6    1
