@<TRIPOS>MOLECULE
1
 13 12 0 0 0
SMALL
GASTEIGER

@<TRIPOS>ATOM
      1 P           1.5858   10.5576   20.6089 P.3     1  UNL1       -0.1154
      2 C           0.4518    9.8511   21.8845 C.3     1  UNL1       -0.0447
      3 C           0.7842    9.8014   19.1366 C.3     1  UNL1       -0.0447
      4 C           0.8057   12.2182   20.4490 C.3     1  UNL1       -0.0447
      5 H          -0.5119   10.3577   21.8222 H       1  UNL1        0.0277
      6 H           0.3039    8.7883   21.7011 H       1  UNL1        0.0277
      7 H           0.8610    9.9737   22.8841 H       1  UNL1        0.0277
      8 H           1.2170   10.2271   18.2317 H       1  UNL1        0.0277
      9 H           0.9489    8.7269   19.1368 H       1  UNL1        0.0277
     10 H          -0.2891    9.9971   19.1577 H       1  UNL1        0.0277
     11 H           0.7609   12.6976   21.4240 H       1  UNL1        0.0277
     12 H           1.3996   12.8316   19.7718 H       1  UNL1        0.0277
     13 H          -0.2070   12.1186   20.0553 H       1  UNL1        0.0277
@<TRIPOS>BOND
     1     8     3    1
     2     3     9    1
     3     3    10    1
     4     3     1    1
     5    12     4    1
     6    13     4    1
     7     4     1    1
     8     4    11    1
     9     1     2    1
    10     6     2    1
    11     5     2    1
    12     2     7    1
