@<TRIPOS>MOLECULE
1
 27 28 0 0 0
SMALL
GASTEIGER

@<TRIPOS>ATOM
      1 P          17.3701    3.6994    6.5339 P.3     1  UNL1       -0.0470
      2 C          17.3754    3.8664    4.6913 C.3     1  UNL1       -0.0364
      3 C          18.1564    5.3081    6.9207 C.ar    1  UNL1       -0.0192
      4 C          19.2918    5.4225    7.7148 C.ar    1  UNL1       -0.0538
      5 C          19.8070    6.6701    8.0200 C.ar    1  UNL1       -0.0612
      6 C          19.1907    7.8158    7.5464 C.ar    1  UNL1       -0.0617
      7 C          18.0574    7.7102    6.7568 C.ar    1  UNL1       -0.0612
      8 C          17.5437    6.4657    6.4470 C.ar    1  UNL1       -0.0538
      9 C          18.8050    2.5800    6.7353 C.ar    1  UNL1       -0.0192
     10 C          18.7151    1.5188    7.6250 C.ar    1  UNL1       -0.0538
     11 C          19.7780    0.6503    7.7975 C.ar    1  UNL1       -0.0612
     12 C          20.9460    0.8365    7.0792 C.ar    1  UNL1       -0.0617
     13 C          21.0474    1.8985    6.1940 C.ar    1  UNL1       -0.0612
     14 C          19.9863    2.7672    6.0225 C.ar    1  UNL1       -0.0538
     15 H          17.4020    2.8736    4.2464 H       1  UNL1        0.0283
     16 H          16.4625    4.3685    4.3787 H       1  UNL1        0.0283
     17 H          18.2350    4.4429    4.3527 H       1  UNL1        0.0283
     18 H          19.7820    4.5353    8.0904 H       1  UNL1        0.0624
     19 H          20.6934    6.7463    8.6338 H       1  UNL1        0.0618
     20 H          19.5914    8.7881    7.7928 H       1  UNL1        0.0618
     21 H          17.5704    8.6005    6.3864 H       1  UNL1        0.0618
     22 H          16.6554    6.3876    5.8349 H       1  UNL1        0.0624
     23 H          17.8017    1.3740    8.1813 H       1  UNL1        0.0624
     24 H          19.6903   -0.1723    8.4927 H       1  UNL1        0.0618
     25 H          21.7782    0.1598    7.2082 H       1  UNL1        0.0618
     26 H          21.9605    2.0503    5.6361 H       1  UNL1        0.0618
     27 H          20.0853    3.6001    5.3414 H       1  UNL1        0.0624
@<TRIPOS>BOND
     1    15     2    1
     2    17     2    1
     3    16     2    1
     4     2     1    1
     5    27    14    1
     6    26    13    1
     7    22     8    1
     8    14    13   ar
     9    14     9   ar
    10    13    12   ar
    11    21     7    1
    12     8     7   ar
    13     8     3   ar
    14     1     9    1
    15     1     3    1
    16     9    10   ar
    17     7     6   ar
    18     3     4   ar
    19    12    25    1
    20    12    11   ar
    21     6    20    1
    22     6     5   ar
    23    10    11   ar
    24    10    23    1
    25     4     5   ar
    26     4    18    1
    27    11    24    1
    28     5    19    1
