@<TRIPOS>MOLECULE
2
 56 58 0 0 0
SMALL
GASTEIGER

@<TRIPOS>ATOM
      1 P           5.1178   -2.7806    2.9579 P.3     1  UNL1        0.0000
      2 P           3.1713   -3.1454    2.0260 P.3     1  UNL1        0.0000
      3 SI          7.8190   -4.0077    2.1629 Si      1  UNL1        0.0000
      4 SI          1.8167   -2.0792   -0.6865 Si      1  UNL1        0.0000
      5 C           6.1183   -3.4017    1.5624 C.2     1  UNL1        0.0000
      6 C           5.7267   -3.4277    0.2774 C.2     1  UNL1        0.0000
      7 H           6.4338   -3.8198   -0.4459 H       1  UNL1        0.0000
      8 C           4.5162   -2.9050   -0.3093 C.2     1  UNL1        0.0000
      9 H           4.5853   -2.7203   -1.3758 H       1  UNL1        0.0000
     10 C           3.3550   -2.6189    0.3111 C.2     1  UNL1        0.0000
     11 C           5.3237   -0.9699    2.7652 C.ar    1  UNL1        0.0000
     12 C           4.8696   -0.1916    3.8280 C.ar    1  UNL1        0.0000
     13 H           4.4417   -0.6789    4.6944 H       1  UNL1        0.0000
     14 C           4.9634    1.1859    3.7797 C.ar    1  UNL1        0.0000
     15 H           4.6050    1.7799    4.6075 H       1  UNL1        0.0000
     16 C           5.5186    1.8010    2.6697 C.ar    1  UNL1        0.0000
     17 H           5.5934    2.8776    2.6277 H       1  UNL1        0.0000
     18 C           5.9863    1.0322    1.6166 C.ar    1  UNL1        0.0000
     19 H           6.4267    1.5107    0.7535 H       1  UNL1        0.0000
     20 C           5.8944   -0.3472    1.6615 C.ar    1  UNL1        0.0000
     21 H           6.2669   -0.9402    0.8393 H       1  UNL1        0.0000
     22 C           2.2232   -1.8305    2.8401 C.ar    1  UNL1        0.0000
     23 C           2.2543   -0.5171    2.3825 C.ar    1  UNL1        0.0000
     24 H           2.8218   -0.2738    1.4969 H       1  UNL1        0.0000
     25 C           1.5666    0.4695    3.0640 C.ar    1  UNL1        0.0000
     26 H           1.5886    1.4865    2.6999 H       1  UNL1        0.0000
     27 C           0.8633    0.1595    4.2166 C.ar    1  UNL1        0.0000
     28 H           0.3273    0.9324    4.7472 H       1  UNL1        0.0000
     29 C           0.8546   -1.1418    4.6931 C.ar    1  UNL1        0.0000
     30 H           0.3166   -1.3833    5.5979 H       1  UNL1        0.0000
     31 C           1.5335   -2.1331    4.0090 C.ar    1  UNL1        0.0000
     32 H           1.5348   -3.1517    4.3787 H       1  UNL1        0.0000
     33 C           8.6429   -2.4949    2.9842 C.3     1  UNL1        0.0000
     34 H           8.0006   -2.0851    3.7595 H       1  UNL1        0.0000
     35 H           8.8366   -1.7013    2.2688 H       1  UNL1        0.0000
     36 H           9.5882   -2.7626    3.4446 H       1  UNL1        0.0000
     37 C           8.8624   -4.6508    0.7060 C.3     1  UNL1        0.0000
     38 H           9.8262   -5.0019    1.0592 H       1  UNL1        0.0000
     39 H           9.0476   -3.8780   -0.0337 H       1  UNL1        0.0000
     40 H           8.3743   -5.4828    0.2086 H       1  UNL1        0.0000
     41 C           7.5365   -5.3690    3.4649 C.3     1  UNL1        0.0000
     42 H           8.4325   -5.5408    4.0531 H       1  UNL1        0.0000
     43 H           7.2599   -6.3123    3.0048 H       1  UNL1        0.0000
     44 H           6.7391   -5.0895    4.1489 H       1  UNL1        0.0000
     45 C           1.8906   -0.2105   -1.0893 C.3     1  UNL1        0.0000
     46 H           1.3752   -0.0155   -2.0242 H       1  UNL1        0.0000
     47 H           2.9129    0.1393   -1.2021 H       1  UNL1        0.0000
     48 H           1.4141    0.3940   -0.3247 H       1  UNL1        0.0000
     49 C           0.2540   -2.5167    0.3086 C.3     1  UNL1        0.0000
     50 H          -0.6053   -2.6383   -0.3435 H       1  UNL1        0.0000
     51 H           0.0081   -1.7489    1.0360 H       1  UNL1        0.0000
     52 H           0.3895   -3.4505    0.8515 H       1  UNL1        0.0000
     53 C           1.8334   -3.0277   -2.3420 C.3     1  UNL1        0.0000
     54 H           1.9265   -4.0990   -2.1993 H       1  UNL1        0.0000
     55 H           2.6518   -2.7062   -2.9790 H       1  UNL1        0.0000
     56 H           0.9114   -2.8489   -2.8867 H       1  UNL1        0.0000
@<TRIPOS>BOND
     1    55    53    1
     2    56    53    1
     3    53    54    1
     4    53     4    1
     5    46    45    1
     6     9     8    1
     7    47    45    1
     8    45     4    1
     9    45    48    1
    10     4    49    1
    11     4    10    1
    12     7     6    1
    13    50    49    1
    14     8     6    1
    15     8    10    2
    16    39    37    1
    17    40    37    1
    18     6     5    2
    19    49    52    1
    20    49    51    1
    21    10     2    1
    22    37    38    1
    23    37     3    1
    24    19    18    1
    25    21    20    1
    26    24    23    1
    27     5     3    1
    28     5     1    1
    29    18    20   ar
    30    18    16   ar
    31    20    11   ar
    32     2    22    1
    33     2     1    1
    34     3    33    1
    35     3    41    1
    36    35    33    1
    37    23    22   ar
    38    23    25   ar
    39    17    16    1
    40    16    14   ar
    41    26    25    1
    42    11     1    1
    43    11    12   ar
    44    22    31   ar
    45    33    36    1
    46    33    34    1
    47    43    41    1
    48    25    27   ar
    49    41    42    1
    50    41    44    1
    51    14    12   ar
    52    14    15    1
    53    12    13    1
    54    31    32    1
    55    31    29   ar
    56    27    29   ar
    57    27    28    1
    58    29    30    1
