@<TRIPOS>MOLECULE
1
 34 36 0 0 0
SMALL
GASTEIGER

@<TRIPOS>ATOM
      1 P           1.4409    2.4281    6.6773 P.3     1  UNL1       -0.0131
      2 C           2.3997    0.9083    6.3784 C.ar    1  UNL1       -0.0147
      3 C           1.8153   -0.3266    6.1215 C.ar    1  UNL1       -0.0535
      4 C           2.6118   -1.4295    5.8694 C.ar    1  UNL1       -0.0611
      5 C           3.9910   -1.3143    5.8766 C.ar    1  UNL1       -0.0617
      6 C           4.5792   -0.0822    6.1135 C.ar    1  UNL1       -0.0611
      7 C           3.7889    1.0250    6.3461 C.ar    1  UNL1       -0.0535
      8 C           2.1053    2.9940    8.2908 C.ar    1  UNL1       -0.0147
      9 C           1.6532    4.2291    8.7487 C.ar    1  UNL1       -0.0535
     10 C           2.0728    4.7217    9.9690 C.ar    1  UNL1       -0.0611
     11 C           2.9399    3.9792   10.7533 C.ar    1  UNL1       -0.0617
     12 C           3.3748    2.7408   10.3135 C.ar    1  UNL1       -0.0611
     13 C           2.9598    2.2441    9.0901 C.ar    1  UNL1       -0.0535
     14 C          -0.1316    1.7627    7.3441 C.ar    1  UNL1       -0.0147
     15 C          -0.0861    0.7996    8.3504 C.ar    1  UNL1       -0.0535
     16 C          -1.2571    0.3019    8.8859 C.ar    1  UNL1       -0.0611
     17 C          -2.4838    0.7647    8.4333 C.ar    1  UNL1       -0.0617
     18 C          -2.5336    1.7349    7.4488 C.ar    1  UNL1       -0.0611
     19 C          -1.3614    2.2354    6.9079 C.ar    1  UNL1       -0.0535
     20 H           0.7397   -0.4380    6.1320 H       1  UNL1        0.0624
     21 H           2.1485   -2.3859    5.6723 H       1  UNL1        0.0618
     22 H           4.6084   -2.1816    5.6943 H       1  UNL1        0.0618
     23 H           5.6552    0.0159    6.1120 H       1  UNL1        0.0618
     24 H           4.2465    1.9924    6.5174 H       1  UNL1        0.0624
     25 H           0.9793    4.8145    8.1359 H       1  UNL1        0.0624
     26 H           1.7253    5.6888   10.3018 H       1  UNL1        0.0618
     27 H           3.2751    4.3625   11.7060 H       1  UNL1        0.0618
     28 H           4.0450    2.1531   10.9250 H       1  UNL1        0.0618
     29 H           3.3154    1.2758    8.7650 H       1  UNL1        0.0624
     30 H           0.8689    0.4419    8.7109 H       1  UNL1        0.0624
     31 H          -1.2147   -0.4487    9.6622 H       1  UNL1        0.0618
     32 H          -3.3976    0.3715    8.8544 H       1  UNL1        0.0618
     33 H          -3.4860    2.1066    7.0992 H       1  UNL1        0.0618
     34 H          -1.4067    2.9990    6.1429 H       1  UNL1        0.0624
@<TRIPOS>BOND
     1    21     4    1
     2    22     5    1
     3     4     5   ar
     4     4     3   ar
     5     5     6   ar
     6    23     6    1
     7     6     7   ar
     8     3    20    1
     9     3     2   ar
    10    34    19    1
    11     7     2   ar
    12     7    24    1
    13     2     1    1
    14     1    14    1
    15     1     8    1
    16    19    14   ar
    17    19    18   ar
    18    33    18    1
    19    14    15   ar
    20    18    17   ar
    21    25     9    1
    22     8     9   ar
    23     8    13   ar
    24    15    30    1
    25    15    16   ar
    26    17    32    1
    27    17    16   ar
    28     9    10   ar
    29    29    13    1
    30    16    31    1
    31    13    12   ar
    32    10    26    1
    33    10    11   ar
    34    12    11   ar
    35    12    28    1
    36    11    27    1
