@<TRIPOS>MOLECULE
1
 34 36 0 0 0
SMALL
GASTEIGER

@<TRIPOS>ATOM
      1 P           1.9838    2.4054    3.0689 P.3     1  UNL1       -0.0131
      2 C           0.7407    1.1140    2.7206 C.ar    1  UNL1       -0.0147
      3 C          -0.1513    0.7229    3.7074 C.ar    1  UNL1       -0.0535
      4 C          -1.0819   -0.2712    3.4636 C.ar    1  UNL1       -0.0611
      5 C          -1.1270   -0.8799    2.2220 C.ar    1  UNL1       -0.0617
      6 C          -0.2410   -0.4915    1.2277 C.ar    1  UNL1       -0.0611
      7 C           0.6902    0.4992    1.4706 C.ar    1  UNL1       -0.0535
      8 C           2.0367    3.2104    1.4286 C.ar    1  UNL1       -0.0147
      9 C           3.2012    3.4259    0.7046 C.ar    1  UNL1       -0.0535
     10 C           3.1528    4.1311   -0.4861 C.ar    1  UNL1       -0.0611
     11 C           1.9509    4.6272   -0.9589 C.ar    1  UNL1       -0.0617
     12 C           0.7851    4.4126   -0.2397 C.ar    1  UNL1       -0.0611
     13 C           0.8272    3.7110    0.9480 C.ar    1  UNL1       -0.0535
     14 C           3.5270    1.4350    3.0565 C.ar    1  UNL1       -0.0147
     15 C           4.7189    2.1314    3.2504 C.ar    1  UNL1       -0.0535
     16 C           5.9294    1.4665    3.2235 C.ar    1  UNL1       -0.0611
     17 C           5.9625    0.0976    3.0127 C.ar    1  UNL1       -0.0617
     18 C           4.7797   -0.6014    2.8450 C.ar    1  UNL1       -0.0611
     19 C           3.5641    0.0586    2.8717 C.ar    1  UNL1       -0.0535
     20 H          -0.1260    1.2108    4.6742 H       1  UNL1        0.0624
     21 H          -1.7723   -0.5644    4.2421 H       1  UNL1        0.0618
     22 H          -1.8536   -1.6545    2.0244 H       1  UNL1        0.0618
     23 H          -0.2772   -0.9654    0.2572 H       1  UNL1        0.0618
     24 H           1.3815    0.7999    0.6943 H       1  UNL1        0.0624
     25 H           4.1474    3.0438    1.0606 H       1  UNL1        0.0624
     26 H           4.0638    4.2942   -1.0443 H       1  UNL1        0.0618
     27 H           1.9200    5.1809   -1.8860 H       1  UNL1        0.0618
     28 H          -0.1560    4.7990   -0.6034 H       1  UNL1        0.0618
     29 H          -0.0801    3.5499    1.5174 H       1  UNL1        0.0624
     30 H           4.6915    3.1996    3.4286 H       1  UNL1        0.0624
     31 H           6.8482    2.0172    3.3676 H       1  UNL1        0.0618
     32 H           6.9082   -0.4240    2.9876 H       1  UNL1        0.0618
     33 H           4.7998   -1.6710    2.6919 H       1  UNL1        0.0618
     34 H           2.6496   -0.5043    2.7509 H       1  UNL1        0.0624
@<TRIPOS>BOND
     1    27    11    1
     2    26    10    1
     3    11    10   ar
     4    11    12   ar
     5    28    12    1
     6    10     9   ar
     7    12    13   ar
     8    23     6    1
     9    24     7    1
    10     9    25    1
    11     9     8   ar
    12    13     8   ar
    13    13    29    1
    14     6     7   ar
    15     6     5   ar
    16     8     1    1
    17     7     2   ar
    18    22     5    1
    19     5     4   ar
    20    33    18    1
    21     2     1    1
    22     2     3   ar
    23    34    19    1
    24    18    19   ar
    25    18    17   ar
    26    19    14   ar
    27    32    17    1
    28    17    16   ar
    29    14     1    1
    30    14    15   ar
    31    16    15   ar
    32    16    31    1
    33    15    30    1
    34     4     3   ar
    35     4    21    1
    36     3    20    1
