@<TRIPOS>MOLECULE
2
 76 76 0 0 0
SMALL
GASTEIGER

@<TRIPOS>ATOM
      1 P           1.3703    4.5187    2.9165 P.3     1  UNL1        0.0000
      2 P           1.8641    4.1162    4.8549 P.3     1  UNL1        0.0000
      3 SI          3.6052    6.5293    5.0663 Si      1  UNL1        0.0000
      4 SI          1.0067    6.2344    6.7524 Si      1  UNL1        0.0000
      5 N           2.1461    5.6444    5.5368 N.3     1  UNL1        0.0000
      6 C           1.2762    2.7627    2.3785 C.ar    1  UNL1        0.0000
      7 C           0.2316    1.9239    2.8079 C.ar    1  UNL1        0.0000
      8 C           0.4742    0.5552    2.8531 C.ar    1  UNL1        0.0000
      9 C           1.6528   -0.0119    2.3954 C.ar    1  UNL1        0.0000
     10 C           2.5280    0.8244    1.7184 C.ar    1  UNL1        0.0000
     11 C           2.3611    2.2000    1.6741 C.ar    1  UNL1        0.0000
     12 C          -1.2071    2.3711    3.0824 C.3     1  UNL1        0.0000
     13 C          -1.4982    3.8343    2.7412 C.3     1  UNL1        0.0000
     14 C          -2.1264    1.5374    2.1676 C.3     1  UNL1        0.0000
     15 C          -1.5903    2.1262    4.5452 C.3     1  UNL1        0.0000
     16 C           1.9028   -1.5029    2.5528 C.3     1  UNL1        0.0000
     17 C           1.8168   -1.8754    4.0387 C.3     1  UNL1        0.0000
     18 C           3.2850   -1.9228    2.0443 C.3     1  UNL1        0.0000
     19 C           0.8387   -2.2770    1.7616 C.3     1  UNL1        0.0000
     20 C           3.2984    3.0318    0.7946 C.3     1  UNL1        0.0000
     21 C           4.0972    2.1545   -0.1824 C.3     1  UNL1        0.0000
     22 C           2.4676    3.9947   -0.0645 C.3     1  UNL1        0.0000
     23 C           4.3125    3.8143    1.6332 C.3     1  UNL1        0.0000
     24 C           5.0236    5.3130    4.6821 C.3     1  UNL1        0.0000
     25 C           3.1930    7.5968    3.5388 C.3     1  UNL1        0.0000
     26 C           4.1979    7.6246    6.5022 C.3     1  UNL1        0.0000
     27 C           1.7900    6.1687    8.4897 C.3     1  UNL1        0.0000
     28 C          -0.5500    5.1415    6.6984 C.3     1  UNL1        0.0000
     29 C           0.4720    7.9965    6.2607 C.3     1  UNL1        0.0000
     30 H          -0.2852   -0.0902    3.2635 H       1  UNL1        0.0000
     31 H           3.3814    0.3907    1.2345 H       1  UNL1        0.0000
     32 H          -2.5758    3.9910    2.7251 H       1  UNL1        0.0000
     33 H          -1.0812    4.5159    3.4802 H       1  UNL1        0.0000
     34 H          -1.1059    4.0926    1.7586 H       1  UNL1        0.0000
     35 H          -3.1595    1.8549    2.2932 H       1  UNL1        0.0000
     36 H          -1.8456    1.6791    1.1261 H       1  UNL1        0.0000
     37 H          -2.0784    0.4767    2.3905 H       1  UNL1        0.0000
     38 H          -2.5970    2.4933    4.7354 H       1  UNL1        0.0000
     39 H          -1.5642    1.0682    4.7893 H       1  UNL1        0.0000
     40 H          -0.8988    2.6466    5.2069 H       1  UNL1        0.0000
     41 H           2.0216   -2.9358    4.1709 H       1  UNL1        0.0000
     42 H           2.5492   -1.3088    4.6132 H       1  UNL1        0.0000
     43 H           0.8317   -1.6691    4.4460 H       1  UNL1        0.0000
     44 H           3.4384   -2.9811    2.2464 H       1  UNL1        0.0000
     45 H           3.3749   -1.7738    0.9706 H       1  UNL1        0.0000
     46 H           4.0686   -1.3655    2.5521 H       1  UNL1        0.0000
     47 H           1.0207   -3.3469    1.8372 H       1  UNL1        0.0000
     48 H          -0.1595   -2.0745    2.1401 H       1  UNL1        0.0000
     49 H           0.8694   -1.9940    0.7113 H       1  UNL1        0.0000
     50 H           4.6256    2.7972   -0.8839 H       1  UNL1        0.0000
     51 H           4.8424    1.5548    0.3339 H       1  UNL1        0.0000
     52 H           3.4409    1.5020   -0.7535 H       1  UNL1        0.0000
     53 H           3.1184    4.5481   -0.7383 H       1  UNL1        0.0000
     54 H           1.7472    3.4371   -0.6596 H       1  UNL1        0.0000
     55 H           1.9269    4.7147    0.5459 H       1  UNL1        0.0000
     56 H           5.0322    4.3071    0.9823 H       1  UNL1        0.0000
     57 H           4.8515    3.1397    2.2950 H       1  UNL1        0.0000
     58 H           3.8178    4.5761    2.2323 H       1  UNL1        0.0000
     59 H           5.5768    5.6184    3.7999 H       1  UNL1        0.0000
     60 H           4.6558    4.3033    4.5126 H       1  UNL1        0.0000
     61 H           5.7300    5.2678    5.5050 H       1  UNL1        0.0000
     62 H           4.0718    8.1357    3.1993 H       1  UNL1        0.0000
     63 H           2.4261    8.3290    3.7695 H       1  UNL1        0.0000
     64 H           2.8285    6.9958    2.7104 H       1  UNL1        0.0000
     65 H           5.0863    8.1649    6.1928 H       1  UNL1        0.0000
     66 H           3.4595    8.3557    6.8058 H       1  UNL1        0.0000
     67 H           4.4604    7.0342    7.3727 H       1  UNL1        0.0000
     68 H           1.0575    5.8653    9.2312 H       1  UNL1        0.0000
     69 H           2.1741    7.1375    8.7903 H       1  UNL1        0.0000
     70 H           2.6112    5.4597    8.5334 H       1  UNL1        0.0000
     71 H          -1.2971    5.5025    7.3982 H       1  UNL1        0.0000
     72 H          -0.3237    4.1125    6.9651 H       1  UNL1        0.0000
     73 H          -1.0017    5.1422    5.7106 H       1  UNL1        0.0000
     74 H          -0.2424    8.3833    6.9796 H       1  UNL1        0.0000
     75 H           1.3089    8.6837    6.2272 H       1  UNL1        0.0000
     76 H          -0.0022    8.0083    5.2845 H       1  UNL1        0.0000
@<TRIPOS>BOND
     1    50    21    1
     2    52    21    1
     3    53    22    1
     4    54    22    1
     5    21    51    1
     6    21    20    1
     7    22    55    1
     8    22    20    1
     9    49    19    1
    10    20    23    1
    11    20    11    1
    12    45    18    1
    13    56    23    1
    14    36    14    1
    15    31    10    1
    16    23    58    1
    17    23    57    1
    18    11    10   ar
    19    11     6   ar
    20    10     9   ar
    21    34    13    1
    22    19    47    1
    23    19    48    1
    24    19    16    1
    25    18    44    1
    26    18    46    1
    27    18    16    1
    28    14    35    1
    29    14    37    1
    30    14    12    1
    31     6     7   ar
    32     6     1    1
    33     9    16    1
    34     9     8   ar
    35    16    17    1
    36    64    25    1
    37    32    13    1
    38    13    12    1
    39    13    33    1
    40     7     8   ar
    41     7    12    1
    42     8    30    1
    43     1     2    1
    44    12    15    1
    45    62    25    1
    46    25    63    1
    47    25     3    1
    48    59    24    1
    49    17    41    1
    50    17    43    1
    51    17    42    1
    52    60    24    1
    53    15    38    1
    54    15    39    1
    55    15    40    1
    56    24     3    1
    57    24    61    1
    58     2     5    1
    59     3     5    1
    60     3    26    1
    61    76    29    1
    62     5     4    1
    63    73    28    1
    64    65    26    1
    65    75    29    1
    66    29     4    1
    67    29    74    1
    68    26    66    1
    69    26    67    1
    70    28     4    1
    71    28    72    1
    72    28    71    1
    73     4    27    1
    74    27    70    1
    75    27    69    1
    76    27    68    1
