@<TRIPOS>MOLECULE
1
 28 27 0 0 0
SMALL
GASTEIGER

@<TRIPOS>ATOM
      1 P          -0.4356   12.0977    2.1505 P.3     1  UNL1        0.0000
      2 SI          0.3455   12.4746    4.2536 Si      1  UNL1        0.0000
      3 SI         -2.6507   12.5888    1.9846 Si      1  UNL1        0.0000
      4 C           2.2137   12.1035    4.1580 C.3     1  UNL1        0.0000
      5 H           2.7134   12.2892    5.1042 H       1  UNL1        0.0000
      6 H           2.6968   12.7183    3.4028 H       1  UNL1        0.0000
      7 H           2.3861   11.0639    3.8912 H       1  UNL1        0.0000
      8 C           0.0534   14.2936    4.7605 C.3     1  UNL1        0.0000
      9 H           0.6174   14.5340    5.6561 H       1  UNL1        0.0000
     10 H          -0.9925   14.4899    4.9701 H       1  UNL1        0.0000
     11 H           0.3694   14.9775    3.9790 H       1  UNL1        0.0000
     12 C          -0.5648   11.2598    5.4080 C.3     1  UNL1        0.0000
     13 H          -0.0449   11.1529    6.3548 H       1  UNL1        0.0000
     14 H          -0.6273   10.2748    4.9535 H       1  UNL1        0.0000
     15 H          -1.5757   11.5904    5.6258 H       1  UNL1        0.0000
     16 C          -3.5930   11.2939    3.0194 C.3     1  UNL1        0.0000
     17 H          -4.6517   11.2944    2.7795 H       1  UNL1        0.0000
     18 H          -3.4987   11.4812    4.0845 H       1  UNL1        0.0000
     19 H          -3.2118   10.2956    2.8236 H       1  UNL1        0.0000
     20 C          -2.9939   14.3660    2.5984 C.3     1  UNL1        0.0000
     21 H          -3.9635   14.7078    2.2506 H       1  UNL1        0.0000
     22 H          -2.2476   15.0643    2.2330 H       1  UNL1        0.0000
     23 H          -2.9989   14.4203    3.6818 H       1  UNL1        0.0000
     24 C          -3.0366   12.4339    0.1231 C.3     1  UNL1        0.0000
     25 H          -4.0692   12.6847   -0.1009 H       1  UNL1        0.0000
     26 H          -2.8606   11.4177   -0.2209 H       1  UNL1        0.0000
     27 H          -2.4013   13.0916   -0.4647 H       1  UNL1        0.0000
     28 H           0.0052   13.3135    1.6257 H       1  UNL1        0.0000
@<TRIPOS>BOND
     1    27    24    1
     2    26    24    1
     3    25    24    1
     4    24     3    1
     5    28     1    1
     6     3     1    1
     7     3    20    1
     8     3    16    1
     9     1     2    1
    10    22    20    1
    11    21    20    1
    12    20    23    1
    13    17    16    1
    14    19    16    1
    15    16    18    1
    16     6     4    1
    17     7     4    1
    18    11     8    1
    19     4     2    1
    20     4     5    1
    21     2     8    1
    22     2    12    1
    23     8    10    1
    24     8     9    1
    25    14    12    1
    26    12    15    1
    27    12    13    1
