@<TRIPOS>MOLECULE
1
 38 38 0 0 0
SMALL
GASTEIGER

@<TRIPOS>ATOM
      1 P          22.1604    2.8613    4.1066 P.3     1  UNL1        0.0000
      2 SI         21.0768    4.8359    3.7236 Si      1  UNL1        0.0000
      3 SI         23.3897    3.1434    6.0095 Si      1  UNL1        0.0000
      4 C          23.3470    2.9028    2.7297 C.ar    1  UNL1        0.0000
      5 C          22.8300    2.8180    1.4371 C.ar    1  UNL1        0.0000
      6 H          21.7587    2.7478    1.2996 H       1  UNL1        0.0000
      7 C          23.6652    2.8146    0.3380 C.ar    1  UNL1        0.0000
      8 H          23.2469    2.7454   -0.6556 H       1  UNL1        0.0000
      9 C          25.0385    2.8915    0.5104 C.ar    1  UNL1        0.0000
     10 H          25.6946    2.8809   -0.3469 H       1  UNL1        0.0000
     11 C          25.5625    2.9753    1.7879 C.ar    1  UNL1        0.0000
     12 H          26.6321    3.0312    1.9303 H       1  UNL1        0.0000
     13 C          24.7252    2.9843    2.8906 C.ar    1  UNL1        0.0000
     14 H          25.1523    3.0431    3.8792 H       1  UNL1        0.0000
     15 C          20.4073    5.4724    5.3938 C.3     1  UNL1        0.0000
     16 H          21.2021    5.7578    6.0743 H       1  UNL1        0.0000
     17 H          19.8038    4.7153    5.8851 H       1  UNL1        0.0000
     18 H          19.7777    6.3427    5.2389 H       1  UNL1        0.0000
     19 C          19.5983    4.5404    2.5512 C.3     1  UNL1        0.0000
     20 H          18.9801    5.4310    2.4849 H       1  UNL1        0.0000
     21 H          18.9686    3.7308    2.9144 H       1  UNL1        0.0000
     22 H          19.9141    4.2891    1.5429 H       1  UNL1        0.0000
     23 C          22.3250    6.0591    2.9518 C.3     1  UNL1        0.0000
     24 H          21.8760    7.0387    2.8239 H       1  UNL1        0.0000
     25 H          22.6584    5.7163    1.9770 H       1  UNL1        0.0000
     26 H          23.2050    6.1750    3.5762 H       1  UNL1        0.0000
     27 C          24.3237    4.8129    6.0840 C.3     1  UNL1        0.0000
     28 H          23.6350    5.6509    6.1145 H       1  UNL1        0.0000
     29 H          24.9827    4.9598    5.2347 H       1  UNL1        0.0000
     30 H          24.9309    4.8551    6.9828 H       1  UNL1        0.0000
     31 C          22.1064    3.0731    7.4249 C.3     1  UNL1        0.0000
     32 H          22.4540    2.4446    8.2389 H       1  UNL1        0.0000
     33 H          21.1637    2.6577    7.0726 H       1  UNL1        0.0000
     34 H          21.9024    4.0555    7.8380 H       1  UNL1        0.0000
     35 C          24.6012    1.6612    6.1147 C.3     1  UNL1        0.0000
     36 H          25.6401    1.9773    6.0851 H       1  UNL1        0.0000
     37 H          24.4399    0.9687    5.2895 H       1  UNL1        0.0000
     38 H          24.4586    1.1055    7.0368 H       1  UNL1        0.0000
@<TRIPOS>BOND
     1     8     7    1
     2    10     9    1
     3     7     9   ar
     4     7     5   ar
     5     9    11   ar
     6     6     5    1
     7     5     4   ar
     8    22    19    1
     9    11    12    1
    10    11    13   ar
    11    25    23    1
    12    20    19    1
    13    19    21    1
    14    19     2    1
    15     4    13   ar
    16     4     1    1
    17    24    23    1
    18    13    14    1
    19    23    26    1
    20    23     2    1
    21     2     1    1
    22     2    15    1
    23     1     3    1
    24    29    27    1
    25    18    15    1
    26    37    35    1
    27    15    17    1
    28    15    16    1
    29     3    27    1
    30     3    35    1
    31     3    31    1
    32    27    28    1
    33    27    30    1
    34    36    35    1
    35    35    38    1
    36    33    31    1
    37    31    34    1
    38    31    32    1
