@<TRIPOS>MOLECULE
1
 38 38 0 0 0
SMALL
GASTEIGER

@<TRIPOS>ATOM
      1 P           2.2946    3.2245    2.6599 P.3     1  UNL1        0.0000
      2 SI          0.3477    2.0556    2.4279 Si      1  UNL1        0.0000
      3 SI          2.8925    3.1474    4.8611 Si      1  UNL1        0.0000
      4 C           1.8590    4.9868    2.5297 C.ar    1  UNL1        0.0000
      5 C           0.5597    5.4593    2.3893 C.ar    1  UNL1        0.0000
      6 H          -0.2658    4.7660    2.3537 H       1  UNL1        0.0000
      7 C           0.3149    6.8174    2.2787 C.ar    1  UNL1        0.0000
      8 H          -0.7000    7.1691    2.1620 H       1  UNL1        0.0000
      9 C           1.3605    7.7227    2.3137 C.ar    1  UNL1        0.0000
     10 H           1.1664    8.7810    2.2243 H       1  UNL1        0.0000
     11 C           2.6603    7.2624    2.4565 C.ar    1  UNL1        0.0000
     12 H           3.4832    7.9618    2.4791 H       1  UNL1        0.0000
     13 C           2.9054    5.9079    2.5602 C.ar    1  UNL1        0.0000
     14 H           3.9216    5.5491    2.6564 H       1  UNL1        0.0000
     15 C          -0.3657    2.5356    0.7159 C.3     1  UNL1        0.0000
     16 H           0.3130    3.2059    0.1915 H       1  UNL1        0.0000
     17 H          -1.3277    3.0333    0.7963 H       1  UNL1        0.0000
     18 H          -0.5053    1.6595    0.0898 H       1  UNL1        0.0000
     19 C          -0.9283    2.3457    3.8257 C.3     1  UNL1        0.0000
     20 H          -1.8220    1.7606    3.6318 H       1  UNL1        0.0000
     21 H          -1.2297    3.3841    3.9127 H       1  UNL1        0.0000
     22 H          -0.5373    2.0359    4.7894 H       1  UNL1        0.0000
     23 C           0.8950    0.2250    2.4735 C.3     1  UNL1        0.0000
     24 H           0.3901   -0.3568    1.7088 H       1  UNL1        0.0000
     25 H           0.6779   -0.2390    3.4303 H       1  UNL1        0.0000
     26 H           1.9650    0.1375    2.2962 H       1  UNL1        0.0000
     27 C           2.6378    1.3562    5.4677 C.3     1  UNL1        0.0000
     28 H           3.1663    0.6524    4.8325 H       1  UNL1        0.0000
     29 H           1.5912    1.0716    5.4790 H       1  UNL1        0.0000
     30 H           3.0220    1.2395    6.4760 H       1  UNL1        0.0000
     31 C           1.7958    4.3854    5.8164 C.3     1  UNL1        0.0000
     32 H           0.7412    4.1677    5.6822 H       1  UNL1        0.0000
     33 H           1.9664    5.4018    5.4744 H       1  UNL1        0.0000
     34 H           2.0095    4.3525    6.8798 H       1  UNL1        0.0000
     35 C           4.7376    3.6075    5.0183 C.3     1  UNL1        0.0000
     36 H           5.0869    3.4649    6.0368 H       1  UNL1        0.0000
     37 H           4.9232    4.6440    4.7523 H       1  UNL1        0.0000
     38 H           5.3484    2.9829    4.3706 H       1  UNL1        0.0000
@<TRIPOS>BOND
     1    18    15    1
     2    16    15    1
     3    15    17    1
     4    15     2    1
     5    24    23    1
     6     8     7    1
     7    10     9    1
     8     7     9   ar
     9     7     5   ar
    10    26    23    1
    11     9    11   ar
    12     6     5    1
    13     5     4   ar
    14     2    23    1
    15     2     1    1
    16     2    19    1
    17    11    12    1
    18    11    13   ar
    19    23    25    1
    20     4    13   ar
    21     4     1    1
    22    13    14    1
    23     1     3    1
    24    20    19    1
    25    19    21    1
    26    19    22    1
    27    38    35    1
    28    37    35    1
    29    28    27    1
    30     3    35    1
    31     3    27    1
    32     3    31    1
    33    35    36    1
    34    27    29    1
    35    27    30    1
    36    33    31    1
    37    32    31    1
    38    31    34    1
