@<TRIPOS>MOLECULE
1
 38 38 0 0 0
SMALL
GASTEIGER

@<TRIPOS>ATOM
      1 P           6.9105    3.2327    2.6156 P.3     1  UNL1        0.0000
      2 SI          7.4647    3.1976    4.8332 Si      1  UNL1        0.0000
      3 SI          4.9540    2.0615    2.3932 Si      1  UNL1        0.0000
      4 C           6.4570    4.9954    2.4937 C.ar    1  UNL1        0.0000
      5 C           7.4658    5.9181    2.2241 C.ar    1  UNL1        0.0000
      6 H           8.4771    5.5672    2.0637 H       1  UNL1        0.0000
      7 C           7.1868    7.2695    2.1488 C.ar    1  UNL1        0.0000
      8 H           7.9805    7.9706    1.9365 H       1  UNL1        0.0000
      9 C           5.8916    7.7234    2.3377 C.ar    1  UNL1        0.0000
     10 H           5.6705    8.7781    2.2713 H       1  UNL1        0.0000
     11 C           4.8822    6.8159    2.6098 C.ar    1  UNL1        0.0000
     12 H           3.8699    7.1629    2.7589 H       1  UNL1        0.0000
     13 C           5.1624    5.4638    2.6932 C.ar    1  UNL1        0.0000
     14 H           4.3692    4.7672    2.9133 H       1  UNL1        0.0000
     15 C           7.2674    1.3972    5.4343 C.3     1  UNL1        0.0000
     16 H           7.5998    1.2981    6.4627 H       1  UNL1        0.0000
     17 H           7.8679    0.7236    4.8305 H       1  UNL1        0.0000
     18 H           6.2385    1.0565    5.3848 H       1  UNL1        0.0000
     19 C           6.3352    4.4065    5.7898 C.3     1  UNL1        0.0000
     20 H           6.5356    4.3564    6.8552 H       1  UNL1        0.0000
     21 H           5.2836    4.1867    5.6394 H       1  UNL1        0.0000
     22 H           6.5042    5.4296    5.4683 H       1  UNL1        0.0000
     23 C           9.2834    3.7550    4.9580 C.3     1  UNL1        0.0000
     24 H           9.6237    3.7756    5.9890 H       1  UNL1        0.0000
     25 H           9.4213    4.7511    4.5463 H       1  UNL1        0.0000
     26 H           9.9332    3.0776    4.4094 H       1  UNL1        0.0000
     27 C           3.6581    2.2482    3.7952 C.3     1  UNL1        0.0000
     28 H           2.9461    1.4309    3.7336 H       1  UNL1        0.0000
     29 H           3.0908    3.1704    3.7279 H       1  UNL1        0.0000
     30 H           4.1155    2.2111    4.7786 H       1  UNL1        0.0000
     31 C           4.2290    2.5941    0.7081 C.3     1  UNL1        0.0000
     32 H           3.4518    1.9118    0.3773 H       1  UNL1        0.0000
     33 H           5.0090    2.6011   -0.0495 H       1  UNL1        0.0000
     34 H           3.8006    3.5915    0.7420 H       1  UNL1        0.0000
     35 C           5.5343    0.2402    2.3876 C.3     1  UNL1        0.0000
     36 H           5.1572   -0.2889    1.5181 H       1  UNL1        0.0000
     37 H           5.1940   -0.2978    3.2670 H       1  UNL1        0.0000
     38 H           6.6203    0.1789    2.3577 H       1  UNL1        0.0000
@<TRIPOS>BOND
     1    33    31    1
     2    32    31    1
     3    31    34    1
     4    31     3    1
     5    36    35    1
     6     8     7    1
     7     6     5    1
     8     7     5   ar
     9     7     9   ar
    10     5     4   ar
    11    10     9    1
    12     9    11   ar
    13    38    35    1
    14    35     3    1
    15    35    37    1
    16     3     1    1
    17     3    27    1
    18     4     1    1
    19     4    13   ar
    20    11    13   ar
    21    11    12    1
    22     1     2    1
    23    13    14    1
    24    29    27    1
    25    28    27    1
    26    27    30    1
    27    26    23    1
    28    25    23    1
    29    17    15    1
    30     2    23    1
    31     2    15    1
    32     2    19    1
    33    23    24    1
    34    18    15    1
    35    15    16    1
    36    22    19    1
    37    21    19    1
    38    19    20    1
