@<TRIPOS>MOLECULE
1
 13 12 0 0 0
SMALL
GASTEIGER

@<TRIPOS>ATOM
      1 P           4.7068    4.2685   -0.6052 P.3     1  UNL1       -0.1154
      2 C           4.9451    3.5697   -2.2917 C.3     1  UNL1       -0.0447
      3 H           5.6898    4.1454   -2.8411 H       1  UNL1        0.0277
      4 H           3.9936    3.6000   -2.8163 H       1  UNL1        0.0277
      5 H           5.2710    2.5334   -2.2260 H       1  UNL1        0.0277
      6 C           6.5104    4.3905   -0.1632 C.3     1  UNL1       -0.0447
      7 H           7.0171    5.0735   -0.8439 H       1  UNL1        0.0277
      8 H           6.9724    3.4090   -0.2444 H       1  UNL1        0.0277
      9 H           6.6392    4.7495    0.8554 H       1  UNL1        0.0277
     10 C           4.4577    6.0222   -1.1202 C.3     1  UNL1       -0.0447
     11 H           5.2058    6.3213   -1.8545 H       1  UNL1        0.0277
     12 H           4.5198    6.6818   -0.2574 H       1  UNL1        0.0277
     13 H           3.4635    6.1107   -1.5528 H       1  UNL1        0.0277
@<TRIPOS>BOND
     1     3     2    1
     2     4     2    1
     3     2     5    1
     4     2     1    1
     5    11    10    1
     6    13    10    1
     7    10     1    1
     8    10    12    1
     9     7     6    1
    10     1     6    1
    11     8     6    1
    12     6     9    1
