@<TRIPOS>MOLECULE
1
 13 12 0 0 0
SMALL
GASTEIGER

@<TRIPOS>ATOM
      1 P           3.7609    1.7244    1.8206 P.3     1  UNL1       -0.1154
      2 C           3.8725    1.6962    3.6607 C.3     1  UNL1       -0.0447
      3 H           4.4458    0.8340    4.0018 H       1  UNL1        0.0277
      4 H           2.8702    1.6505    4.0786 H       1  UNL1        0.0277
      5 H           4.3594    2.6060    4.0093 H       1  UNL1        0.0277
      6 C           3.2494   -0.0214    1.5480 C.3     1  UNL1       -0.0447
      7 H           3.8067   -0.6949    2.1994 H       1  UNL1        0.0277
      8 H           3.4326   -0.2868    0.5094 H       1  UNL1        0.0277
      9 H           2.1847   -0.1206    1.7423 H       1  UNL1        0.0277
     10 C           5.5575    1.5105    1.4704 C.3     1  UNL1       -0.0447
     11 H           5.9527    0.6267    1.9722 H       1  UNL1        0.0277
     12 H           6.1004    2.3899    1.8118 H       1  UNL1        0.0277
     13 H           5.6971    1.4056    0.3956 H       1  UNL1        0.0277
@<TRIPOS>BOND
     1    13    10    1
     2     8     6    1
     3    10    12    1
     4    10     1    1
     5    10    11    1
     6     6     9    1
     7     6     1    1
     8     6     7    1
     9     1     2    1
    10     2     3    1
    11     2     5    1
    12     2     4    1
