@<TRIPOS>MOLECULE
1
 13 12 0 0 0
SMALL
GASTEIGER

@<TRIPOS>ATOM
      1 P           2.9132    5.1207    2.2837 P.3     1  UNL1       -0.1154
      2 C           4.5927    5.7160    2.7823 C.3     1  UNL1       -0.0447
      3 H           4.5194    6.4866    3.5498 H       1  UNL1        0.0277
      4 H           5.1075    6.1247    1.9153 H       1  UNL1        0.0277
      5 H           5.1751    4.8805    3.1699 H       1  UNL1        0.0277
      6 C           2.1354    6.7295    1.8547 C.3     1  UNL1       -0.0447
      7 H           2.3096    7.4749    2.6307 H       1  UNL1        0.0277
      8 H           1.0683    6.5450    1.7436 H       1  UNL1        0.0277
      9 H           2.5195    7.0887    0.9038 H       1  UNL1        0.0277
     10 C           2.1924    4.9644    3.9713 C.3     1  UNL1       -0.0447
     11 H           2.3628    5.8772    4.5424 H       1  UNL1        0.0277
     12 H           2.6302    4.1226    4.5008 H       1  UNL1        0.0277
     13 H           1.1248    4.7957    3.8654 H       1  UNL1        0.0277
@<TRIPOS>BOND
     1     9     6    1
     2     8     6    1
     3     6     1    1
     4     6     7    1
     5     4     2    1
     6     1     2    1
     7     1    10    1
     8     2     5    1
     9     2     3    1
    10    13    10    1
    11    10    12    1
    12    10    11    1
