@<TRIPOS>MOLECULE
1
 13 12 0 0 0
SMALL
GASTEIGER

@<TRIPOS>ATOM
      1 P          11.1745    1.0354   12.0901 P.3     1  UNL1       -0.1154
      2 C          11.3178   -0.4660   13.1468 C.3     1  UNL1       -0.0447
      3 H          11.2935   -1.3794   12.5531 H       1  UNL1        0.0277
      4 H          10.5116   -0.4815   13.8763 H       1  UNL1        0.0277
      5 H          12.2613   -0.3988   13.6829 H       1  UNL1        0.0277
      6 C          12.4919    0.6175   10.8733 C.3     1  UNL1       -0.0447
      7 H          12.3402   -0.3799   10.4615 H       1  UNL1        0.0277
      8 H          13.4541    0.6648   11.3734 H       1  UNL1        0.0277
      9 H          12.4850    1.3479   10.0680 H       1  UNL1        0.0277
     10 C           9.7355    0.5143   11.0446 C.3     1  UNL1       -0.0447
     11 H           9.9040   -0.4772   10.6249 H       1  UNL1        0.0277
     12 H           9.6135    1.2301   10.2327 H       1  UNL1        0.0277
     13 H           8.8226    0.4990   11.6352 H       1  UNL1        0.0277
@<TRIPOS>BOND
     1     9     6    1
     2    12    10    1
     3     7     6    1
     4    11    10    1
     5     6     8    1
     6     6     1    1
     7    10    13    1
     8    10     1    1
     9     1     2    1
    10     3     2    1
    11     2     5    1
    12     2     4    1
