@<TRIPOS>MOLECULE
1
 13 12 0 0 0
SMALL
GASTEIGER

@<TRIPOS>ATOM
      1 P          -1.9275    9.3289   -0.2969 P.3     1  UNL1       -0.1154
      2 C          -2.0078   10.0689   -1.9787 C.3     1  UNL1       -0.0447
      3 H          -2.8896   10.6998   -2.0931 H       1  UNL1        0.0277
      4 H          -2.0231    9.2754   -2.7224 H       1  UNL1        0.0277
      5 H          -1.1073   10.6583   -2.1356 H       1  UNL1        0.0277
      6 C          -2.2018   10.8844    0.6590 C.3     1  UNL1       -0.0447
      7 H          -3.1206   11.3718    0.3339 H       1  UNL1        0.0277
      8 H          -1.3612   11.5521    0.4879 H       1  UNL1        0.0277
      9 H          -2.2660   10.6765    1.7250 H       1  UNL1        0.0277
     10 C          -3.6605    8.6772   -0.2309 C.3     1  UNL1       -0.0447
     11 H          -3.7710    7.8841   -0.9685 H       1  UNL1        0.0277
     12 H          -4.3764    9.4676   -0.4544 H       1  UNL1        0.0277
     13 H          -3.8754    8.2724    0.7561 H       1  UNL1        0.0277
@<TRIPOS>BOND
     1     4     2    1
     2     5     2    1
     3     3     2    1
     4     2     1    1
     5    11    10    1
     6    12    10    1
     7     1    10    1
     8     1     6    1
     9    10    13    1
    10     7     6    1
    11     8     6    1
    12     6     9    1
