@<TRIPOS>MOLECULE
1
 13 12 0 0 0
SMALL
GASTEIGER

@<TRIPOS>ATOM
      1 P          11.2525    4.6839   11.4470 P.3     1  UNL1       -0.1154
      2 C          11.9330    4.3226    9.7703 C.3     1  UNL1       -0.0447
      3 H          11.9417    5.2174    9.1487 H       1  UNL1        0.0277
      4 H          11.3172    3.5604    9.2949 H       1  UNL1        0.0277
      5 H          12.9437    3.9396    9.8745 H       1  UNL1        0.0277
      6 C           9.6948    5.5097   10.8923 C.3     1  UNL1       -0.0447
      7 H           9.9171    6.3241   10.2028 H       1  UNL1        0.0277
      8 H           9.1759    5.9095   11.7615 H       1  UNL1        0.0277
      9 H           9.0513    4.7864   10.3960 H       1  UNL1        0.0277
     10 C          12.1975    6.2111   11.8391 C.3     1  UNL1       -0.0447
     11 H          12.2253    6.8934   10.9898 H       1  UNL1        0.0277
     12 H          13.2058    5.9398   12.1371 H       1  UNL1        0.0277
     13 H          11.7204    6.6996   12.6866 H       1  UNL1        0.0277
@<TRIPOS>BOND
     1     3     2    1
     2     4     2    1
     3     2     5    1
     4     2     1    1
     5     7     6    1
     6     9     6    1
     7     6     1    1
     8     6     8    1
     9    11    10    1
    10     1    10    1
    11    10    12    1
    12    10    13    1
