@<TRIPOS>MOLECULE
1
 13 12 0 0 0
SMALL
GASTEIGER

@<TRIPOS>ATOM
      1 P          -0.8164    6.0030   -0.7862 P.3     1  UNL1       -0.1154
      2 C          -2.3237    5.1919   -0.0755 C.3     1  UNL1       -0.0447
      3 H          -2.5859    4.3068   -0.6548 H       1  UNL1        0.0277
      4 H          -3.1613    5.8852   -0.0865 H       1  UNL1        0.0277
      5 H          -2.1371    4.8969    0.9550 H       1  UNL1        0.0277
      6 C           0.2605    4.5145   -0.8687 C.3     1  UNL1       -0.0447
      7 H           1.1474    4.7727   -1.4417 H       1  UNL1        0.0277
      8 H          -0.2578    3.6789   -1.3390 H       1  UNL1        0.0277
      9 H           0.5725    4.2324    0.1342 H       1  UNL1        0.0277
     10 C          -1.3461    6.0407   -2.5486 C.3     1  UNL1       -0.0447
     11 H          -2.1406    6.7736   -2.6762 H       1  UNL1        0.0277
     12 H          -1.6959    5.0630   -2.8799 H       1  UNL1        0.0277
     13 H          -0.4920    6.3515   -3.1467 H       1  UNL1        0.0277
@<TRIPOS>BOND
     1    13    10    1
     2    12    10    1
     3    11    10    1
     4    10     1    1
     5     7     6    1
     6     8     6    1
     7     6     1    1
     8     6     9    1
     9     1     2    1
    10     3     2    1
    11     4     2    1
    12     2     5    1
