@<TRIPOS>MOLECULE
1
 13 12 0 0 0
SMALL
GASTEIGER

@<TRIPOS>ATOM
      1 P          -0.1772    7.5245    2.2530 P.3     1  UNL1       -0.1154
      2 C           0.7885    8.4521    3.5113 C.3     1  UNL1       -0.0447
      3 H           0.6728    8.0071    4.4995 H       1  UNL1        0.0277
      4 H           0.4542    9.4871    3.5414 H       1  UNL1        0.0277
      5 H           1.8354    8.4398    3.2141 H       1  UNL1        0.0277
      6 C          -1.8617    7.7166    2.9855 C.3     1  UNL1       -0.0447
      7 H          -2.2071    8.7386    2.8415 H       1  UNL1        0.0277
      8 H          -1.8527    7.4892    4.0518 H       1  UNL1        0.0277
      9 H          -2.5524    7.0426    2.4808 H       1  UNL1        0.0277
     10 C           0.1601    5.8219    2.8674 C.3     1  UNL1       -0.0447
     11 H          -0.4313    5.0997    2.3088 H       1  UNL1        0.0277
     12 H          -0.0805    5.7388    3.9275 H       1  UNL1        0.0277
     13 H           1.2111    5.5972    2.7135 H       1  UNL1        0.0277
@<TRIPOS>BOND
     1     1    10    1
     2     1     6    1
     3     1     2    1
     4    11    10    1
     5     9     6    1
     6    13    10    1
     7     7     6    1
     8    10    12    1
     9     6     8    1
    10     5     2    1
    11     2     4    1
    12     2     3    1
