@<TRIPOS>MOLECULE
1
 13 12 0 0 0
SMALL
GASTEIGER

@<TRIPOS>ATOM
      1 P           8.8941    3.0907   13.6637 P.3     1  UNL1       -0.1154
      2 C           8.1812    4.3308   14.8292 C.3     1  UNL1       -0.0447
      3 H           7.1034    4.1956   14.9199 H       1  UNL1        0.0277
      4 H           8.3871    5.3350   14.4616 H       1  UNL1        0.0277
      5 H           8.6403    4.2189   15.8088 H       1  UNL1        0.0277
      6 C           7.5725    3.2189   12.3711 C.3     1  UNL1       -0.0447
      7 H           6.6313    2.8186   12.7473 H       1  UNL1        0.0277
      8 H           7.8615    2.6715   11.4778 H       1  UNL1        0.0277
      9 H           7.4299    4.2633   12.1053 H       1  UNL1        0.0277
     10 C           8.2664    1.5697   14.5046 C.3     1  UNL1       -0.0447
     11 H           7.2363    1.7073   14.8337 H       1  UNL1        0.0277
     12 H           8.8915    1.3437   15.3652 H       1  UNL1        0.0277
     13 H           8.3149    0.7274   13.8179 H       1  UNL1        0.0277
@<TRIPOS>BOND
     1     8     6    1
     2     9     6    1
     3     6     7    1
     4     6     1    1
     5     1    10    1
     6     1     2    1
     7    13    10    1
     8     4     2    1
     9    10    11    1
    10    10    12    1
    11     2     3    1
    12     2     5    1
