@<TRIPOS>MOLECULE
1
 13 12 0 0 0
SMALL
GASTEIGER

@<TRIPOS>ATOM
      1 P          21.6249   -5.5649    7.8674 P.3     1  UNL1       -0.1154
      2 C          20.9991   -6.3895    6.3547 C.3     1  UNL1       -0.0447
      3 H          20.4369   -7.2908    6.6091 H       1  UNL1        0.0277
      4 H          21.8649   -6.6574    5.7486 H       1  UNL1        0.0277
      5 H          20.3704   -5.7130    5.7829 H       1  UNL1        0.0277
      6 C          20.1284   -5.6536    8.9422 C.3     1  UNL1       -0.0447
      7 H          19.4235   -6.3898    8.5542 H       1  UNL1        0.0277
      8 H          19.6427   -4.6863    9.0316 H       1  UNL1        0.0277
      9 H          20.4488   -5.9552    9.9369 H       1  UNL1        0.0277
     10 C          22.4594   -7.0415    8.5558 C.3     1  UNL1       -0.0447
     11 H          21.7869   -7.9014    8.5238 H       1  UNL1        0.0277
     12 H          22.7353   -6.8407    9.5888 H       1  UNL1        0.0277
     13 H          23.3507   -7.2481    7.9644 H       1  UNL1        0.0277
@<TRIPOS>BOND
     1     4     2    1
     2     5     2    1
     3     2     3    1
     4     2     1    1
     5     1    10    1
     6     1     6    1
     7    13    10    1
     8    11    10    1
     9     7     6    1
    10    10    12    1
    11     6     8    1
    12     6     9    1
