@<TRIPOS>MOLECULE
1
 13 12 0 0 0
SMALL
GASTEIGER

@<TRIPOS>ATOM
      1 P          24.3451   -2.5093    5.7451 P.3     1  UNL1       -0.1154
      2 C          24.7358   -0.7415    6.0387 C.3     1  UNL1       -0.0447
      3 H          25.1516   -0.2725    5.1459 H       1  UNL1        0.0277
      4 H          25.4559   -0.6785    6.8545 H       1  UNL1        0.0277
      5 H          23.8332   -0.2191    6.3505 H       1  UNL1        0.0277
      6 C          23.7540   -2.4445    4.0091 C.3     1  UNL1       -0.0447
      7 H          24.4938   -1.9453    3.3808 H       1  UNL1        0.0277
      8 H          22.8041   -1.9264    3.9325 H       1  UNL1        0.0277
      9 H          23.6250   -3.4717    3.6692 H       1  UNL1        0.0277
     10 C          26.0318   -3.0896    5.2646 C.3     1  UNL1       -0.0447
     11 H          26.5247   -2.3138    4.6761 H       1  UNL1        0.0277
     12 H          25.9152   -3.9804    4.6473 H       1  UNL1        0.0277
     13 H          26.6474   -3.3361    6.1234 H       1  UNL1        0.0277
@<TRIPOS>BOND
     1     7     6    1
     2     9     6    1
     3     8     6    1
     4     6     1    1
     5    12    10    1
     6    11    10    1
     7     3     2    1
     8    10     1    1
     9    10    13    1
    10     1     2    1
    11     2     5    1
    12     2     4    1
