@<TRIPOS>MOLECULE
1
 13 12 0 0 0
SMALL
GASTEIGER

@<TRIPOS>ATOM
      1 P          21.1288   -2.9790    6.0277 P.3     1  UNL1       -0.1154
      2 C          19.4616   -3.1537    6.7723 C.3     1  UNL1       -0.0447
      3 H          18.7288   -2.6349    6.1500 H       1  UNL1        0.0277
      4 H          19.4836   -2.7006    7.7650 H       1  UNL1        0.0277
      5 H          19.1773   -4.2004    6.8605 H       1  UNL1        0.0277
      6 C          20.7196   -3.6227    4.3174 C.3     1  UNL1       -0.0447
      7 H          20.7821   -2.8274    3.5758 H       1  UNL1        0.0277
      8 H          19.7095   -4.0321    4.2974 H       1  UNL1        0.0277
      9 H          21.4255   -4.4066    4.0485 H       1  UNL1        0.0277
     10 C          20.9643   -1.1720    5.7314 C.3     1  UNL1       -0.0447
     11 H          20.1748   -0.9666    5.0058 H       1  UNL1        0.0277
     12 H          21.8998   -0.7341    5.3911 H       1  UNL1        0.0277
     13 H          20.7012   -0.7201    6.6886 H       1  UNL1        0.0277
@<TRIPOS>BOND
     1     7     6    1
     2     9     6    1
     3     8     6    1
     4     6     1    1
     5    11    10    1
     6    12    10    1
     7    10     1    1
     8    10    13    1
     9     1     2    1
    10     3     2    1
    11     2     5    1
    12     2     4    1
