@<TRIPOS>MOLECULE
1
 13 12 0 0 0
SMALL
GASTEIGER

@<TRIPOS>ATOM
      1 P          25.0229   -4.6033    8.3185 P.3     1  UNL1       -0.1154
      2 C          25.9535   -5.7857    7.2560 C.3     1  UNL1       -0.0447
      3 H          27.0251   -5.7351    7.4547 H       1  UNL1        0.0277
      4 H          25.7554   -5.5894    6.2068 H       1  UNL1        0.0277
      5 H          25.5987   -6.7905    7.4874 H       1  UNL1        0.0277
      6 C          26.2674   -3.3189    8.7364 C.3     1  UNL1       -0.0447
      7 H          27.2622   -3.7525    8.8544 H       1  UNL1        0.0277
      8 H          25.9476   -2.8809    9.6832 H       1  UNL1        0.0277
      9 H          26.2847   -2.5271    7.9928 H       1  UNL1        0.0277
     10 C          25.2729   -5.5223    9.8964 C.3     1  UNL1       -0.0447
     11 H          26.3438   -5.7004   10.0135 H       1  UNL1        0.0277
     12 H          24.7587   -6.4789    9.8963 H       1  UNL1        0.0277
     13 H          24.9179   -4.9185   10.7270 H       1  UNL1        0.0277
@<TRIPOS>BOND
     1     4     2    1
     2     2     3    1
     3     2     5    1
     4     2     1    1
     5     9     6    1
     6     1     6    1
     7     1    10    1
     8     6     7    1
     9     6     8    1
    10    12    10    1
    11    10    11    1
    12    10    13    1
