@<TRIPOS>MOLECULE
1
 13 12 0 0 0
SMALL
GASTEIGER

@<TRIPOS>ATOM
      1 P           5.9629    0.9903    2.7439 P.3     1  UNL1       -0.1154
      2 C           7.0134   -0.0046    1.6000 C.3     1  UNL1       -0.0447
      3 H           7.5242   -0.7731    2.1827 H       1  UNL1        0.0277
      4 H           7.7553    0.6210    1.1143 H       1  UNL1        0.0277
      5 H           6.3920   -0.4878    0.8487 H       1  UNL1        0.0277
      6 C           7.1820    1.0679    4.1138 C.3     1  UNL1       -0.0447
      7 H           7.3828    0.0690    4.5045 H       1  UNL1        0.0277
      8 H           6.8230    1.7131    4.9124 H       1  UNL1        0.0277
      9 H           8.1037    1.4959    3.7221 H       1  UNL1        0.0277
     10 C           4.9776   -0.4556    3.3170 C.3     1  UNL1       -0.0447
     11 H           5.6589   -1.2592    3.6007 H       1  UNL1        0.0277
     12 H           4.3382   -0.7942    2.5052 H       1  UNL1        0.0277
     13 H           4.3486   -0.1981    4.1619 H       1  UNL1        0.0277
@<TRIPOS>BOND
     1     5     2    1
     2     4     2    1
     3     2     3    1
     4     2     1    1
     5    12    10    1
     6     1    10    1
     7     1     6    1
     8    10    11    1
     9    10    13    1
    10     9     6    1
    11     6     7    1
    12     6     8    1
