@<TRIPOS>MOLECULE
1
 13 12 0 0 0
SMALL
GASTEIGER

@<TRIPOS>ATOM
      1 P           5.3082    5.6806    2.1572 P.3     1  UNL1       -0.1154
      2 C           5.3146    6.4997    0.5208 C.3     1  UNL1       -0.0447
      3 H           5.3258    7.5844    0.6407 H       1  UNL1        0.0277
      4 H           4.4135    6.2026   -0.0157 H       1  UNL1        0.0277
      5 H           6.1958    6.1871   -0.0333 H       1  UNL1        0.0277
      6 C           6.7604    6.5330    2.8861 C.3     1  UNL1       -0.0447
      7 H           6.6561    7.6126    2.7685 H       1  UNL1        0.0277
      8 H           7.6609    6.1957    2.3789 H       1  UNL1        0.0277
      9 H           6.8451    6.2930    3.9443 H       1  UNL1        0.0277
     10 C           3.9749    6.7203    2.8807 C.3     1  UNL1       -0.0447
     11 H           4.2214    7.7772    2.7643 H       1  UNL1        0.0277
     12 H           3.8335    6.5009    3.9360 H       1  UNL1        0.0277
     13 H           3.0486    6.5087    2.3460 H       1  UNL1        0.0277
@<TRIPOS>BOND
     1     5     2    1
     2     4     2    1
     3     2     3    1
     4     2     1    1
     5     1    10    1
     6     1     6    1
     7    13    10    1
     8     8     6    1
     9    11    10    1
    10     7     6    1
    11    10    12    1
    12     6     9    1
