@<TRIPOS>MOLECULE
1
 13 12 0 0 0
SMALL
GASTEIGER

@<TRIPOS>ATOM
      1 P           2.8506   18.5344    7.7139 P.3     1  UNL1       -0.1154
      2 C           2.6158   19.6055    6.2262 C.3     1  UNL1       -0.0447
      3 H           3.2257   19.2022    5.4158 H       1  UNL1        0.0277
      4 H           2.9150   20.6304    6.4190 H       1  UNL1        0.0277
      5 H           1.5728   19.5847    5.9180 H       1  UNL1        0.0277
      6 C           4.6286   18.1906    7.4276 C.3     1  UNL1       -0.0447
      7 H           4.7648   17.7443    6.4412 H       1  UNL1        0.0277
      8 H           4.9976   17.5049    8.1871 H       1  UNL1        0.0277
      9 H           5.1764   19.1304    7.4782 H       1  UNL1        0.0277
     10 C           2.1400   17.0281    6.9411 C.3     1  UNL1       -0.0447
     11 H           2.4405   16.9746    5.8932 H       1  UNL1        0.0277
     12 H           1.0527   17.0750    7.0029 H       1  UNL1        0.0277
     13 H           2.4747   16.1350    7.4615 H       1  UNL1        0.0277
@<TRIPOS>BOND
     1     3     2    1
     2    11    10    1
     3     5     2    1
     4     2     4    1
     5     2     1    1
     6     7     6    1
     7    10    12    1
     8    10    13    1
     9    10     1    1
    10     6     9    1
    11     6     1    1
    12     6     8    1
