@<TRIPOS>MOLECULE
1
 13 12 0 0 0
SMALL
GASTEIGER

@<TRIPOS>ATOM
      1 P           6.5787    0.3525    3.7673 P.3     1  UNL1       -0.1154
      2 C           7.9876    1.3843    3.1993 C.3     1  UNL1       -0.0447
      3 H           8.6135    1.6605    4.0501 H       1  UNL1        0.0277
      4 H           7.6060    2.2838    2.7210 H       1  UNL1        0.0277
      5 H           8.5853    0.8268    2.4789 H       1  UNL1        0.0277
      6 C           6.1855    1.3015    5.2976 C.3     1  UNL1       -0.0447
      7 H           6.9469    1.1236    6.0588 H       1  UNL1        0.0277
      8 H           5.2104    1.0089    5.6836 H       1  UNL1        0.0277
      9 H           6.1511    2.3611    5.0580 H       1  UNL1        0.0277
     10 C           7.5809   -0.9618    4.5811 C.3     1  UNL1       -0.0447
     11 H           8.4315   -0.5055    5.0909 H       1  UNL1        0.0277
     12 H           7.9342   -1.6838    3.8487 H       1  UNL1        0.0277
     13 H           6.9641   -1.4870    5.3088 H       1  UNL1        0.0277
@<TRIPOS>BOND
     1     5     2    1
     2     4     2    1
     3     2     1    1
     4     2     3    1
     5     1    10    1
     6     1     6    1
     7    12    10    1
     8    10    11    1
     9    10    13    1
    10     9     6    1
    11     6     8    1
    12     6     7    1
