@<TRIPOS>MOLECULE
1
 13 12 0 0 0
SMALL
GASTEIGER

@<TRIPOS>ATOM
      1 P           4.3655   19.1141   11.0666 P.3     1  UNL1       -0.1154
      2 C           5.9154   19.6219   10.2049 C.3     1  UNL1       -0.0447
      3 H           6.6644   19.8750   10.9572 H       1  UNL1        0.0277
      4 H           5.7428   20.4862    9.5711 H       1  UNL1        0.0277
      5 H           6.2889   18.7947    9.6039 H       1  UNL1        0.0277
      6 C           5.1854   17.7679   12.0179 C.3     1  UNL1       -0.0447
      7 H           6.0784   18.1657   12.5026 H       1  UNL1        0.0277
      8 H           5.4701   16.9753   11.3293 H       1  UNL1        0.0277
      9 H           4.5234   17.3483   12.7666 H       1  UNL1        0.0277
     10 C           4.3963   20.4258   12.3491 C.3     1  UNL1       -0.0447
     11 H           5.3329   20.3956   12.9089 H       1  UNL1        0.0277
     12 H           3.5551   20.3038   13.0290 H       1  UNL1        0.0277
     13 H           4.2987   21.3892   11.8515 H       1  UNL1        0.0277
@<TRIPOS>BOND
     1     4     2    1
     2     5     2    1
     3     2     3    1
     4     2     1    1
     5     1     6    1
     6     1    10    1
     7     8     6    1
     8    13    10    1
     9     6     7    1
    10     6     9    1
    11    10    11    1
    12    10    12    1
