@<TRIPOS>MOLECULE
1
 13 12 0 0 0
SMALL
GASTEIGER

@<TRIPOS>ATOM
      1 P           0.0655   20.1372    9.4138 P.3     1  UNL1       -0.1154
      2 C          -0.2470   21.8205   10.0683 C.3     1  UNL1       -0.0447
      3 H          -1.2801   22.1183    9.8824 H       1  UNL1        0.0277
      4 H           0.4299   22.5087    9.5673 H       1  UNL1        0.0277
      5 H          -0.0364   21.8549   11.1350 H       1  UNL1        0.0277
      6 C          -0.3339   20.4534    7.6537 C.3     1  UNL1       -0.0447
      7 H          -1.3117   20.9316    7.5735 H       1  UNL1        0.0277
      8 H          -0.3528   19.4992    7.1265 H       1  UNL1        0.0277
      9 H           0.4224   21.1022    7.2193 H       1  UNL1        0.0277
     10 C          -1.5355   19.3214    9.8063 C.3     1  UNL1       -0.0447
     11 H          -2.3674   19.9645    9.5133 H       1  UNL1        0.0277
     12 H          -1.6157   19.0885   10.8646 H       1  UNL1        0.0277
     13 H          -1.5835   18.3923    9.2369 H       1  UNL1        0.0277
@<TRIPOS>BOND
     1     8     6    1
     2     9     6    1
     3     7     6    1
     4     6     1    1
     5    13    10    1
     6     1    10    1
     7     1     2    1
     8    11    10    1
     9     4     2    1
    10    10    12    1
    11     3     2    1
    12     2     5    1
