@<TRIPOS>MOLECULE
1
 13 12 0 0 0
SMALL
GASTEIGER

@<TRIPOS>ATOM
      1 P           4.8438    2.9917   -0.2066 P.3     1  UNL1       -0.1154
      2 C           3.1612    3.2632   -0.8911 C.3     1  UNL1       -0.0447
      3 H           3.2039    3.2553   -1.9817 H       1  UNL1        0.0277
      4 H           2.7817    4.2263   -0.5506 H       1  UNL1        0.0277
      5 H           2.4802    2.4888   -0.5496 H       1  UNL1        0.0277
      6 C           5.1512    1.3199   -0.8925 C.3     1  UNL1       -0.0447
      7 H           4.7456    1.2556   -1.9035 H       1  UNL1        0.0277
      8 H           4.6716    0.5734   -0.2635 H       1  UNL1        0.0277
      9 H           6.2256    1.1469   -0.9209 H       1  UNL1        0.0277
     10 C           5.7106    3.9213   -1.5507 C.3     1  UNL1       -0.0447
     11 H           5.5930    3.3584   -2.4781 H       1  UNL1        0.0277
     12 H           6.7673    4.0459   -1.3442 H       1  UNL1        0.0277
     13 H           5.2487    4.8976   -1.6798 H       1  UNL1        0.0277
@<TRIPOS>BOND
     1    11    10    1
     2     3     2    1
     3     7     6    1
     4    13    10    1
     5    10    12    1
     6    10     1    1
     7     9     6    1
     8     6     8    1
     9     6     1    1
    10     2     4    1
    11     2     5    1
    12     2     1    1
