@<TRIPOS>MOLECULE
1
 13 12 0 0 0
SMALL
GASTEIGER

@<TRIPOS>ATOM
      1 P           6.4181    5.5074   18.6026 P.3     1  UNL1       -0.1154
      2 C           7.6311    5.4130   19.9671 C.3     1  UNL1       -0.0447
      3 H           8.2310    6.3237   20.0105 H       1  UNL1        0.0277
      4 H           8.2743    4.5478   19.8238 H       1  UNL1        0.0277
      5 H           7.0803    5.2904   20.8992 H       1  UNL1        0.0277
      6 C           5.6531    7.1164   19.0734 C.3     1  UNL1       -0.0447
      7 H           6.4202    7.8694   19.2617 H       1  UNL1        0.0277
      8 H           5.0597    6.9641   19.9752 H       1  UNL1        0.0277
      9 H           4.9982    7.4618   18.2737 H       1  UNL1        0.0277
     10 C           7.4967    6.1138   17.2481 C.3     1  UNL1       -0.0447
     11 H           8.0226    7.0170   17.5601 H       1  UNL1        0.0277
     12 H           6.8903    6.3261   16.3688 H       1  UNL1        0.0277
     13 H           8.2157    5.3396   16.9932 H       1  UNL1        0.0277
@<TRIPOS>BOND
     1    12    10    1
     2    13    10    1
     3    10    11    1
     4    10     1    1
     5     9     6    1
     6     1     6    1
     7     1     2    1
     8     6     7    1
     9     6     8    1
    10     4     2    1
    11     2     3    1
    12     2     5    1
