@<TRIPOS>MOLECULE
1
 13 12 0 0 0
SMALL
GASTEIGER

@<TRIPOS>ATOM
      1 P           3.2987    4.9608   17.0553 P.3     1  UNL1       -0.1154
      2 C           2.1522    6.1720   17.8335 C.3     1  UNL1       -0.0447
      3 H           1.5392    6.6592   17.0746 H       1  UNL1        0.0277
      4 H           2.7256    6.9216   18.3761 H       1  UNL1        0.0277
      5 H           1.5101    5.6542   18.5430 H       1  UNL1        0.0277
      6 C           2.0917    3.9921   16.0785 C.3     1  UNL1       -0.0447
      7 H           1.4136    4.6496   15.5320 H       1  UNL1        0.0277
      8 H           1.5230    3.3440   16.7444 H       1  UNL1        0.0277
      9 H           2.6490    3.3677   15.3809 H       1  UNL1        0.0277
     10 C           3.9461    6.0051   15.6921 C.3     1  UNL1       -0.0447
     11 H           3.1248    6.4535   15.1309 H       1  UNL1        0.0277
     12 H           4.5409    5.3710   15.0349 H       1  UNL1        0.0277
     13 H           4.5828    6.7926   16.0936 H       1  UNL1        0.0277
@<TRIPOS>BOND
     1    12    10    1
     2    11    10    1
     3     9     6    1
     4     7     6    1
     5    10    13    1
     6    10     1    1
     7     6     8    1
     8     6     1    1
     9     1     2    1
    10     3     2    1
    11     2     4    1
    12     2     5    1
