@<TRIPOS>MOLECULE
1
 13 12 0 0 0
SMALL
GASTEIGER

@<TRIPOS>ATOM
      1 P           4.1199    3.4236    4.4909 P.3     1  UNL1       -0.1154
      2 C           2.4054    4.0386    4.7019 C.3     1  UNL1       -0.0447
      3 H           2.1805    4.1650    5.7621 H       1  UNL1        0.0277
      4 H           1.7267    3.3055    4.2691 H       1  UNL1        0.0277
      5 H           2.2637    4.9830    4.1850 H       1  UNL1        0.0277
      6 C           3.9525    2.0057    5.6540 C.3     1  UNL1       -0.0447
      7 H           3.6553    2.3846    6.6333 H       1  UNL1        0.0277
      8 H           4.8917    1.4664    5.7510 H       1  UNL1        0.0277
      9 H           3.1813    1.3318    5.2875 H       1  UNL1        0.0277
     10 C           5.0308    4.5171    5.6524 C.3     1  UNL1       -0.0447
     11 H           4.4691    4.6615    6.5769 H       1  UNL1        0.0277
     12 H           5.2272    5.4803    5.1884 H       1  UNL1        0.0277
     13 H           5.9875    4.0440    5.8786 H       1  UNL1        0.0277
@<TRIPOS>BOND
     1     5     2    1
     2     4     2    1
     3     1     2    1
     4     1    10    1
     5     1     6    1
     6     2     3    1
     7    12    10    1
     8     9     6    1
     9    10    13    1
    10    10    11    1
    11     6     8    1
    12     6     7    1
