@<TRIPOS>MOLECULE
1
 13 12 0 0 0
SMALL
GASTEIGER

@<TRIPOS>ATOM
      1 P           3.1885    0.7594    0.4730 P.3     1  UNL1       -0.1154
      2 C           2.3510   -0.5217   -0.5382 C.3     1  UNL1       -0.0447
      3 H           1.7290   -0.0624   -1.3090 H       1  UNL1        0.0277
      4 H           1.7308   -1.1338    0.1166 H       1  UNL1        0.0277
      5 H           3.0944   -1.1669   -1.0012 H       1  UNL1        0.0277
      6 C           1.6677    1.6915    0.9288 C.3     1  UNL1       -0.0447
      7 H           1.0577    1.8480    0.0375 H       1  UNL1        0.0277
      8 H           1.9363    2.6519    1.3600 H       1  UNL1        0.0277
      9 H           1.0933    1.1228    1.6577 H       1  UNL1        0.0277
     10 C           3.7784    1.8458   -0.8782 C.3     1  UNL1       -0.0447
     11 H           2.9398    2.2212   -1.4662 H       1  UNL1        0.0277
     12 H           4.4394    1.2655   -1.5223 H       1  UNL1        0.0277
     13 H           4.3310    2.6790   -0.4479 H       1  UNL1        0.0277
@<TRIPOS>BOND
     1    12    10    1
     2    11    10    1
     3     3     2    1
     4     5     2    1
     5    10    13    1
     6    10     1    1
     7     2     4    1
     8     2     1    1
     9     7     6    1
    10     1     6    1
    11     6     8    1
    12     6     9    1
