@<TRIPOS>MOLECULE
1
 13 12 0 0 0
SMALL
GASTEIGER

@<TRIPOS>ATOM
      1 P           1.0937   18.3108   12.1372 P.3     1  UNL1       -0.1154
      2 C           2.0369   17.7408   13.6128 C.3     1  UNL1       -0.0447
      3 H           1.3491   17.6287   14.4526 H       1  UNL1        0.0277
      4 H           2.8080   18.4610   13.8786 H       1  UNL1        0.0277
      5 H           2.4932   16.7769   13.3995 H       1  UNL1        0.0277
      6 C           0.1404   19.6039   13.0312 C.3     1  UNL1       -0.0447
      7 H          -0.3948   19.1739   13.8796 H       1  UNL1        0.0277
      8 H          -0.5643   20.0942   12.3651 H       1  UNL1        0.0277
      9 H           0.8496   20.3513   13.3905 H       1  UNL1        0.0277
     10 C          -0.1084   16.9269   12.1316 C.3     1  UNL1       -0.0447
     11 H          -0.5813   16.8340   13.1104 H       1  UNL1        0.0277
     12 H           0.4320   16.0110   11.8977 H       1  UNL1        0.0277
     13 H          -0.8693   17.0771   11.3709 H       1  UNL1        0.0277
@<TRIPOS>BOND
     1    13    10    1
     2    12    10    1
     3    10     1    1
     4    10    11    1
     5     1     6    1
     6     1     2    1
     7     8     6    1
     8     6     9    1
     9     6     7    1
    10     5     2    1
    11     2     4    1
    12     2     3    1
