@<TRIPOS>MOLECULE
1
 13 12 0 0 0
SMALL
GASTEIGER

@<TRIPOS>ATOM
      1 P           3.0700   -0.3528    3.7671 P.3     1  UNL1       -0.1154
      2 C           1.6609   -1.3844    3.1991 C.3     1  UNL1       -0.0447
      3 H           1.0351   -1.6605    4.0499 H       1  UNL1        0.0277
      4 H           2.0425   -2.2839    2.7207 H       1  UNL1        0.0277
      5 H           1.0634   -0.8267    2.4788 H       1  UNL1        0.0277
      6 C           3.4630   -1.3018    5.2974 C.3     1  UNL1       -0.0447
      7 H           2.7018   -1.1235    6.0587 H       1  UNL1        0.0277
      8 H           4.4382   -1.0096    5.6833 H       1  UNL1        0.0277
      9 H           3.4969   -2.3614    5.0578 H       1  UNL1        0.0277
     10 C           2.0681    0.9616    4.5812 C.3     1  UNL1       -0.0447
     11 H           1.2175    0.5053    5.0911 H       1  UNL1        0.0277
     12 H           1.7146    1.6836    3.8489 H       1  UNL1        0.0277
     13 H           2.6850    1.4868    5.3089 H       1  UNL1        0.0277
@<TRIPOS>BOND
     1     5     2    1
     2     4     2    1
     3     2     1    1
     4     2     3    1
     5     1    10    1
     6     1     6    1
     7    12    10    1
     8    10    11    1
     9    10    13    1
    10     9     6    1
    11     6     8    1
    12     6     7    1
