@<TRIPOS>MOLECULE
1
 13 12 0 0 0
SMALL
GASTEIGER

@<TRIPOS>ATOM
      1 P           3.1065    2.4312   19.5219 P.3     1  UNL1       -0.1154
      2 C           2.5281    0.8464   18.8142 C.3     1  UNL1       -0.0447
      3 H           1.7895    0.3764   19.4652 H       1  UNL1        0.0277
      4 H           3.3935    0.1941   18.6980 H       1  UNL1        0.0277
      5 H           2.0951    1.0224   17.8299 H       1  UNL1        0.0277
      6 C           3.6126    1.8674   21.1839 C.3     1  UNL1       -0.0447
      7 H           2.8186    1.2913   21.6623 H       1  UNL1        0.0277
      8 H           3.8527    2.7414   21.7880 H       1  UNL1        0.0277
      9 H           4.5099    1.2577   21.0792 H       1  UNL1        0.0277
     10 C           1.4835    3.1828   19.9714 C.3     1  UNL1       -0.0447
     11 H           0.9070    2.4933   20.5894 H       1  UNL1        0.0277
     12 H           0.9159    3.4164   19.0712 H       1  UNL1        0.0277
     13 H           1.6678    4.1015   20.5283 H       1  UNL1        0.0277
@<TRIPOS>BOND
     1     5     2    1
     2     4     2    1
     3     2     3    1
     4     2     1    1
     5    12    10    1
     6     1    10    1
     7     1     6    1
     8    10    13    1
     9    10    11    1
    10     9     6    1
    11     6     7    1
    12     6     8    1
