@<TRIPOS>MOLECULE
1
 13 12 0 0 0
SMALL
GASTEIGER

@<TRIPOS>ATOM
      1 P           6.4603   -0.7594    0.4729 P.3     1  UNL1       -0.1154
      2 C           7.2975    0.5218   -0.5385 C.3     1  UNL1       -0.0447
      3 H           7.9194    0.0624   -1.3092 H       1  UNL1        0.0277
      4 H           7.9176    1.1341    0.1162 H       1  UNL1        0.0277
      5 H           6.5539    1.1667   -1.0015 H       1  UNL1        0.0277
      6 C           7.9812   -1.6912    0.9287 C.3     1  UNL1       -0.0447
      7 H           8.5911   -1.8478    0.0374 H       1  UNL1        0.0277
      8 H           7.7128   -2.6515    1.3601 H       1  UNL1        0.0277
      9 H           8.5557   -1.1222    1.6575 H       1  UNL1        0.0277
     10 C           5.8701   -1.8460   -0.8780 C.3     1  UNL1       -0.0447
     11 H           6.7087   -2.2213   -1.4662 H       1  UNL1        0.0277
     12 H           5.2088   -1.2659   -1.5220 H       1  UNL1        0.0277
     13 H           5.3178   -2.6793   -0.4475 H       1  UNL1        0.0277
@<TRIPOS>BOND
     1    12    10    1
     2    11    10    1
     3     3     2    1
     4     5     2    1
     5    10    13    1
     6    10     1    1
     7     2     4    1
     8     2     1    1
     9     7     6    1
    10     1     6    1
    11     6     8    1
    12     6     9    1
