@<TRIPOS>MOLECULE
1
 13 12 0 0 0
SMALL
GASTEIGER

@<TRIPOS>ATOM
      1 P           2.5019   -1.0458    7.8434 P.3     1  UNL1       -0.1154
      2 C           4.0054   -1.7343    7.0416 C.3     1  UNL1       -0.0447
      3 H           4.4350   -2.5181    7.6670 H       1  UNL1        0.0277
      4 H           4.7359   -0.9436    6.8907 H       1  UNL1        0.0277
      5 H           3.7260   -2.1533    6.0762 H       1  UNL1        0.0277
      6 C           1.5896   -2.6201    8.0448 C.3     1  UNL1       -0.0447
      7 H           2.2497   -3.4094    8.4057 H       1  UNL1        0.0277
      8 H           1.1685   -2.9067    7.0829 H       1  UNL1        0.0277
      9 H           0.7779   -2.4753    8.7533 H       1  UNL1        0.0277
     10 C           3.1395   -0.8429    9.5433 C.3     1  UNL1       -0.0447
     11 H           3.6128   -1.7559    9.9057 H       1  UNL1        0.0277
     12 H           2.3044   -0.5750   10.1878 H       1  UNL1        0.0277
     13 H           3.8579   -0.0254    9.5475 H       1  UNL1        0.0277
@<TRIPOS>BOND
     1     5     2    1
     2     4     2    1
     3     2     3    1
     4     2     1    1
     5     8     6    1
     6     1     6    1
     7     1    10    1
     8     6     7    1
     9     6     9    1
    10    10    13    1
    11    10    11    1
    12    10    12    1
