@<TRIPOS>MOLECULE
1
 13 12 0 0 0
SMALL
GASTEIGER

@<TRIPOS>ATOM
      1 P           2.9549    2.2401    7.2027 P.3     1  UNL1       -0.1154
      2 C           3.1111    3.1543    8.7774 C.3     1  UNL1       -0.0447
      3 H           3.9351    3.8670    8.7317 H       1  UNL1        0.0277
      4 H           3.2879    2.4391    9.5771 H       1  UNL1        0.0277
      5 H           2.1842    3.6828    8.9823 H       1  UNL1        0.0277
      6 C           4.7389    1.8693    6.9629 C.3     1  UNL1       -0.0447
      7 H           5.3180    2.7935    6.9824 H       1  UNL1        0.0277
      8 H           4.8890    1.3621    6.0135 H       1  UNL1        0.0277
      9 H           5.0661    1.2183    7.7723 H       1  UNL1        0.0277
     10 C           2.7861    3.6554    6.0576 C.3     1  UNL1       -0.0447
     11 H           3.5297    4.4258    6.2633 H       1  UNL1        0.0277
     12 H           1.7855    4.0675    6.1767 H       1  UNL1        0.0277
     13 H           2.8984    3.2976    5.0359 H       1  UNL1        0.0277
@<TRIPOS>BOND
     1    13    10    1
     2     8     6    1
     3    10    12    1
     4    10    11    1
     5    10     1    1
     6     6     7    1
     7     6     1    1
     8     6     9    1
     9     1     2    1
    10     3     2    1
    11     2     5    1
    12     2     4    1
