@<TRIPOS>MOLECULE
1
 13 12 0 0 0
SMALL
GASTEIGER

@<TRIPOS>ATOM
      1 P           1.6363    0.2461    4.8761 P.3     1  UNL1       -0.1154
      2 C           0.7439    1.3089    3.6812 C.3     1  UNL1       -0.0447
      3 H           0.9985    1.0399    2.6557 H       1  UNL1        0.0277
      4 H           1.0142    2.3467    3.8658 H       1  UNL1        0.0277
      5 H          -0.3273    1.1963    3.8284 H       1  UNL1        0.0277
      6 C           1.0381   -1.3939    4.3336 C.3     1  UNL1       -0.0447
      7 H           1.0750   -1.4942    3.2485 H       1  UNL1        0.0277
      8 H           0.0146   -1.5182    4.6823 H       1  UNL1        0.0277
      9 H           1.6589   -2.1590    4.7961 H       1  UNL1        0.0277
     10 C           3.2695    0.2507    4.0334 C.3     1  UNL1       -0.0447
     11 H           3.1589   -0.1051    3.0081 H       1  UNL1        0.0277
     12 H           3.9623   -0.3913    4.5714 H       1  UNL1        0.0277
     13 H           3.6570    1.2681    4.0247 H       1  UNL1        0.0277
@<TRIPOS>BOND
     1     3     2    1
     2    11    10    1
     3     7     6    1
     4     2     5    1
     5     2     4    1
     6     2     1    1
     7    13    10    1
     8    10    12    1
     9    10     1    1
    10     6     8    1
    11     6     9    1
    12     6     1    1
