@<TRIPOS>MOLECULE
1
 13 12 0 0 0
SMALL
GASTEIGER

@<TRIPOS>ATOM
      1 P           3.1930    0.5415   16.1596 P.3     1  UNL1       -0.1154
      2 C           3.4595    0.7815   17.9622 C.3     1  UNL1       -0.0447
      3 H           3.4130   -0.1668   18.4994 H       1  UNL1        0.0277
      4 H           2.6885    1.4557   18.3334 H       1  UNL1        0.0277
      5 H           4.4312    1.2480   18.1217 H       1  UNL1        0.0277
      6 C           4.3574   -0.8468   15.8673 C.3     1  UNL1       -0.0447
      7 H           4.1968   -1.6468   16.5909 H       1  UNL1        0.0277
      8 H           5.3802   -0.4837   15.9411 H       1  UNL1        0.0277
      9 H           4.2030   -1.2282   14.8592 H       1  UNL1        0.0277
     10 C           1.6373   -0.4349   16.2654 C.3     1  UNL1       -0.0447
     11 H           1.7138   -1.2135   17.0257 H       1  UNL1        0.0277
     12 H           1.4440   -0.8932   15.2956 H       1  UNL1        0.0277
     13 H           0.8161    0.2392   16.5064 H       1  UNL1        0.0277
@<TRIPOS>BOND
     1     9     6    1
     2    12    10    1
     3     6     8    1
     4     6     1    1
     5     6     7    1
     6     1    10    1
     7     1     2    1
     8    10    13    1
     9    10    11    1
    10     2     5    1
    11     2     4    1
    12     2     3    1
