@<TRIPOS>MOLECULE
1
 13 12 0 0 0
SMALL
GASTEIGER

@<TRIPOS>ATOM
      1 P           5.3116    3.3498   15.6557 P.3     1  UNL1       -0.1154
      2 C           5.3793    4.2701   17.2389 C.3     1  UNL1       -0.0447
      3 H           6.4060    4.5459   17.4820 H       1  UNL1        0.0277
      4 H           4.9647    3.6522   18.0340 H       1  UNL1        0.0277
      5 H           4.7688    5.1664   17.1477 H       1  UNL1        0.0277
      6 C           6.2165    4.5339   14.5865 C.3     1  UNL1       -0.0447
      7 H           7.1604    4.8337   15.0439 H       1  UNL1        0.0277
      8 H           5.5907    5.4101   14.4241 H       1  UNL1        0.0277
      9 H           6.4076    4.0548   13.6271 H       1  UNL1        0.0277
     10 C           6.6955    2.1683   15.9483 C.3     1  UNL1       -0.0447
     11 H           7.6053    2.6977   16.2349 H       1  UNL1        0.0277
     12 H           6.8697    1.6085   15.0297 H       1  UNL1        0.0277
     13 H           6.4184    1.4722   16.7398 H       1  UNL1        0.0277
@<TRIPOS>BOND
     1     9     6    1
     2     8     6    1
     3     6     7    1
     4     6     1    1
     5    12    10    1
     6     1    10    1
     7     1     2    1
     8    10    11    1
     9    10    13    1
    10     5     2    1
    11     2     3    1
    12     2     4    1
