@<TRIPOS>MOLECULE
1
 13 12 0 0 0
SMALL
GASTEIGER

@<TRIPOS>ATOM
      1 P           2.1565    1.4824   12.8367 P.3     1  UNL1       -0.1154
      2 C           0.4208    0.8847   12.8651 C.3     1  UNL1       -0.0447
      3 H           0.1755    0.3779   11.9312 H       1  UNL1        0.0277
      4 H          -0.2394    1.7399   12.9989 H       1  UNL1        0.0277
      5 H           0.2779    0.2035   13.7014 H       1  UNL1        0.0277
      6 C           2.9737   -0.0114   12.1449 C.3     1  UNL1       -0.0447
      7 H           2.4990   -0.3222   11.2133 H       1  UNL1        0.0277
      8 H           2.9134   -0.8187   12.8751 H       1  UNL1        0.0277
      9 H           4.0223    0.2235   11.9679 H       1  UNL1        0.0277
     10 C           2.0703    2.4766   11.2938 C.3     1  UNL1       -0.0447
     11 H           1.5494    1.9321   10.5056 H       1  UNL1        0.0277
     12 H           3.0858    2.7047   10.9742 H       1  UNL1        0.0277
     13 H           1.5504    3.4115   11.4997 H       1  UNL1        0.0277
@<TRIPOS>BOND
     1    11    10    1
     2    12    10    1
     3     7     6    1
     4    10    13    1
     5    10     1    1
     6     3     2    1
     7     9     6    1
     8     6     1    1
     9     6     8    1
    10     1     2    1
    11     2     4    1
    12     2     5    1
