@<TRIPOS>MOLECULE
1
 32 32 0 0 0
SMALL
GASTEIGER

@<TRIPOS>ATOM
      1 P          -3.9707   18.0017    3.5162 P.3     1  UNL1       -0.0694
      2 C          -2.6435   18.2993    2.2818 C.ar    1  UNL1       -0.0229
      3 C          -2.7822   19.3812    1.4157 C.ar    1  UNL1       -0.0541
      4 H          -3.6291   20.0409    1.5263 H       1  UNL1        0.0624
      5 C          -1.8445   19.6309    0.4303 C.ar    1  UNL1       -0.0612
      6 H          -1.9727   20.4809   -0.2223 H       1  UNL1        0.0618
      7 C          -0.7462   18.7996    0.2899 C.ar    1  UNL1       -0.0617
      8 H          -0.0089   18.9924   -0.4750 H       1  UNL1        0.0618
      9 C          -0.5976   17.7188    1.1418 C.ar    1  UNL1       -0.0612
     10 H           0.2563   17.0641    1.0414 H       1  UNL1        0.0618
     11 C          -1.5363   17.4667    2.1276 C.ar    1  UNL1       -0.0541
     12 H          -1.3821   16.6173    2.7748 H       1  UNL1        0.0624
     13 C          -3.0848   16.9691    4.7964 C.3     1  UNL1       -0.0220
     14 H          -2.6468   16.1024    4.2924 H       1  UNL1        0.0346
     15 C          -1.9726   17.7886    5.4410 C.3     1  UNL1       -0.0584
     16 H          -1.4400   17.1878    6.1767 H       1  UNL1        0.0236
     17 H          -2.3927   18.6595    5.9408 H       1  UNL1        0.0236
     18 H          -1.2627   18.1419    4.6962 H       1  UNL1        0.0236
     19 C          -4.0736   16.4742    5.8444 C.3     1  UNL1       -0.0584
     20 H          -3.5598   15.8789    6.5981 H       1  UNL1        0.0236
     21 H          -4.8518   15.8587    5.3954 H       1  UNL1        0.0236
     22 H          -4.5400   17.3227    6.3419 H       1  UNL1        0.0236
     23 C          -4.9923   16.7298    2.5775 C.3     1  UNL1       -0.0220
     24 H          -5.8700   16.5421    3.2095 H       1  UNL1        0.0346
     25 C          -5.4633   17.3431    1.2615 C.3     1  UNL1       -0.0584
     26 H          -6.2250   16.7141    0.8028 H       1  UNL1        0.0236
     27 H          -4.6298   17.4367    0.5679 H       1  UNL1        0.0236
     28 H          -5.8828   18.3348    1.4213 H       1  UNL1        0.0236
     29 C          -4.2865   15.4056    2.3028 C.3     1  UNL1       -0.0584
     30 H          -4.9264   14.7857    1.6756 H       1  UNL1        0.0236
     31 H          -4.0823   14.8515    3.2155 H       1  UNL1        0.0236
     32 H          -3.3540   15.5718    1.7677 H       1  UNL1        0.0236
@<TRIPOS>BOND
     1     8     7    1
     2     6     5    1
     3     7     5   ar
     4     7     9   ar
     5     5     3   ar
     6    27    25    1
     7    26    25    1
     8    10     9    1
     9     9    11   ar
    10    25    28    1
    11    25    23    1
    12     3     4    1
    13     3     2   ar
    14    30    29    1
    15    32    29    1
    16    11     2   ar
    17    11    12    1
    18     2     1    1
    19    29    23    1
    20    29    31    1
    21    23    24    1
    22    23     1    1
    23     1    13    1
    24    14    13    1
    25    18    15    1
    26    13    15    1
    27    13    19    1
    28    21    19    1
    29    15    17    1
    30    15    16    1
    31    19    22    1
    32    19    20    1
