@<TRIPOS>MOLECULE
1
 39 40 0 0 0
SMALL
GASTEIGER

@<TRIPOS>ATOM
      1 P           1.8308    2.9278    3.0772 P.3     1  UNL1        0.0000
      2 SI         -0.2288    5.0905    4.4020 Si      1  UNL1        0.0000
      3 C           0.9487    4.5036    2.9494 C.3     1  UNL1        0.0000
      4 C           0.8746    5.9968    5.6566 C.3     1  UNL1        0.0000
      5 C          -1.4357    6.2789    3.5331 C.3     1  UNL1        0.0000
      6 C          -1.1670    3.6664    5.2445 C.3     1  UNL1        0.0000
      7 C           0.6341    1.5731    2.9628 C.ar    1  UNL1        0.0000
      8 C           1.1168    0.2779    3.1576 C.ar    1  UNL1        0.0000
      9 C           0.2665   -0.8045    3.0394 C.ar    1  UNL1        0.0000
     10 C          -1.0651   -0.6043    2.7046 C.ar    1  UNL1        0.0000
     11 C          -1.5406    0.6776    2.4829 C.ar    1  UNL1        0.0000
     12 C          -0.6947    1.7673    2.6046 C.ar    1  UNL1        0.0000
     13 C           2.4814    2.8609    4.7738 C.ar    1  UNL1        0.0000
     14 C           3.4973    3.7588    5.0989 C.ar    1  UNL1        0.0000
     15 C           4.0378    3.7745    6.3704 C.ar    1  UNL1        0.0000
     16 C           3.5718    2.8887    7.3303 C.ar    1  UNL1        0.0000
     17 C           2.5665    1.9912    7.0128 C.ar    1  UNL1        0.0000
     18 C           2.0219    1.9714    5.7399 C.ar    1  UNL1        0.0000
     19 H           0.4189    4.4912    1.9949 H       1  UNL1        0.0000
     20 H           1.7332    5.2587    2.8551 H       1  UNL1        0.0000
     21 H           1.5064    5.3116    6.2140 H       1  UNL1        0.0000
     22 H           1.5203    6.7284    5.1796 H       1  UNL1        0.0000
     23 H           0.2619    6.5304    6.3763 H       1  UNL1        0.0000
     24 H          -0.9146    7.0930    3.0377 H       1  UNL1        0.0000
     25 H          -2.0480    5.7792    2.7876 H       1  UNL1        0.0000
     26 H          -2.1116    6.7230    4.2561 H       1  UNL1        0.0000
     27 H          -2.0189    3.3255    4.6647 H       1  UNL1        0.0000
     28 H          -0.5313    2.8087    5.4383 H       1  UNL1        0.0000
     29 H          -1.5498    4.0076    6.2016 H       1  UNL1        0.0000
     30 H           2.1619    0.1349    3.4032 H       1  UNL1        0.0000
     31 H           0.6391   -1.8041    3.2036 H       1  UNL1        0.0000
     32 H          -1.7291   -1.4493    2.6102 H       1  UNL1        0.0000
     33 H          -2.5740    0.8298    2.2113 H       1  UNL1        0.0000
     34 H          -1.0697    2.7642    2.4303 H       1  UNL1        0.0000
     35 H           3.8576    4.4480    4.3481 H       1  UNL1        0.0000
     36 H           4.8231    4.4736    6.6131 H       1  UNL1        0.0000
     37 H           3.9965    2.8955    8.3218 H       1  UNL1        0.0000
     38 H           2.2053    1.2986    7.7573 H       1  UNL1        0.0000
     39 H           1.2443    1.2598    5.5033 H       1  UNL1        0.0000
@<TRIPOS>BOND
     1    19     3    1
     2    33    11    1
     3    34    12    1
     4    11    12   ar
     5    11    10   ar
     6    12     7   ar
     7    32    10    1
     8    10     9   ar
     9    25     5    1
    10    20     3    1
    11     3     1    1
    12     3     2    1
    13     7     1    1
    14     7     8   ar
    15    24     5    1
    16     9     8   ar
    17     9    31    1
    18     1    13    1
    19     8    30    1
    20     5    26    1
    21     5     2    1
    22    35    14    1
    23     2     6    1
    24     2     4    1
    25    27     6    1
    26    13    14   ar
    27    13    18   ar
    28    14    15   ar
    29    22     4    1
    30     6    28    1
    31     6    29    1
    32    39    18    1
    33     4    21    1
    34     4    23    1
    35    18    17   ar
    36    15    36    1
    37    15    16   ar
    38    17    16   ar
    39    17    38    1
    40    16    37    1
