@<TRIPOS>MOLECULE
1
 13 12 0 0 0
SMALL
GASTEIGER

@<TRIPOS>ATOM
      1 P          11.7118    3.6491    7.8957 P.3     1  UNL1       -0.1154
      2 C          12.9332    4.5956    8.8761 C.3     1  UNL1       -0.0447
      3 H          12.4647    5.5139    9.2241 H       1  UNL1        0.0277
      4 H          13.8194    4.8233    8.2818 H       1  UNL1        0.0277
      5 H          13.2116    3.9981    9.7438 H       1  UNL1        0.0277
      6 C          12.8408    2.2931    7.3511 C.3     1  UNL1       -0.0447
      7 H          13.1103    1.6537    8.1889 H       1  UNL1        0.0277
      8 H          13.7459    2.7376    6.9351 H       1  UNL1        0.0277
      9 H          12.3572    1.6944    6.5803 H       1  UNL1        0.0277
     10 C          11.7606    4.5783    6.3043 C.3     1  UNL1       -0.0447
     11 H          11.6146    3.8841    5.4783 H       1  UNL1        0.0277
     12 H          12.7378    5.0511    6.2024 H       1  UNL1        0.0277
     13 H          10.9874    5.3425    6.2809 H       1  UNL1        0.0277
@<TRIPOS>BOND
     1    11    10    1
     2    12    10    1
     3    13    10    1
     4    10     1    1
     5     9     6    1
     6     8     6    1
     7     6     1    1
     8     6     7    1
     9     1     2    1
    10     4     2    1
    11     2     3    1
    12     2     5    1
