@<TRIPOS>MOLECULE
1
 13 12 0 0 0
SMALL
GASTEIGER

@<TRIPOS>ATOM
      1 P          10.1677    1.3458    9.6548 P.3     1  UNL1       -0.1154
      2 C          10.4352   -0.0075    8.4321 C.3     1  UNL1       -0.0447
      3 H           9.6083   -0.0327    7.7249 H       1  UNL1        0.0277
      4 H          10.4952   -0.9631    8.9539 H       1  UNL1        0.0277
      5 H          11.3572    0.1605    7.8832 H       1  UNL1        0.0277
      6 C          11.6309    1.0772   10.7287 C.3     1  UNL1       -0.0447
      7 H          12.4818    1.6229   10.3265 H       1  UNL1        0.0277
      8 H          11.8675    0.0155   10.8086 H       1  UNL1        0.0277
      9 H          11.3988    1.4790   11.7141 H       1  UNL1        0.0277
     10 C           8.9380    0.4734   10.7058 C.3     1  UNL1       -0.0447
     11 H           8.7348    1.0805   11.5870 H       1  UNL1        0.0277
     12 H           9.3397   -0.4921   11.0171 H       1  UNL1        0.0277
     13 H           8.0144    0.3201   10.1511 H       1  UNL1        0.0277
@<TRIPOS>BOND
     1     3     2    1
     2     5     2    1
     3     2     4    1
     4     2     1    1
     5     1    10    1
     6     1     6    1
     7    13    10    1
     8     7     6    1
     9    10    12    1
    10    10    11    1
    11     6     8    1
    12     6     9    1
