@<TRIPOS>MOLECULE
1
 13 12 0 0 0
SMALL
GASTEIGER

@<TRIPOS>ATOM
      1 P           8.4204    2.9700    7.4932 P.3     1  UNL1       -0.1154
      2 C           7.3348    4.3204    6.9055 C.3     1  UNL1       -0.0447
      3 H           6.7395    4.6858    7.7422 H       1  UNL1        0.0277
      4 H           6.6805    3.9548    6.1129 H       1  UNL1        0.0277
      5 H           7.9509    5.1386    6.5352 H       1  UNL1        0.0277
      6 C           7.1227    1.6964    7.7431 C.3     1  UNL1       -0.0447
      7 H           7.5738    0.7249    7.9332 H       1  UNL1        0.0277
      8 H           6.4935    1.6355    6.8543 H       1  UNL1        0.0277
      9 H           6.5106    1.9803    8.5975 H       1  UNL1        0.0277
     10 C           9.0656    2.4141    5.8663 C.3     1  UNL1       -0.0447
     11 H           9.4855    3.2807    5.3592 H       1  UNL1        0.0277
     12 H           8.2629    1.9936    5.2595 H       1  UNL1        0.0277
     13 H           9.8497    1.6724    6.0098 H       1  UNL1        0.0277
@<TRIPOS>BOND
     1    12    10    1
     2    11    10    1
     3    10    13    1
     4    10     1    1
     5     4     2    1
     6     5     2    1
     7     8     6    1
     8     2     1    1
     9     2     3    1
    10     1     6    1
    11     6     7    1
    12     6     9    1
