@<TRIPOS>MOLECULE
3
 68 70 0 0 0
SMALL
GASTEIGER

@<TRIPOS>ATOM
      1 SI         16.5486    5.6854   -2.7095 Si      1  UNL1        0.0000
      2 SI         15.9469    7.0646   -4.5131 Si      1  UNL1        0.0000
      3 P          18.5403    5.2501   -1.9840 P.3     1  UNL1        0.0000
      4 C          15.6422    7.4024   -0.3384 C.3     1  UNL1        0.0000
      5 N          15.0130    4.6476   -2.4573 N.3     1  UNL1        0.0000
      6 N          15.5466    6.3282   -1.3046 N.3     1  UNL1        0.0000
      7 C          14.5933    5.4321   -1.4807 C.3     1  UNL1        0.0000
      8 C          13.2717    5.4014   -0.8332 C.ar    1  UNL1        0.0000
      9 C          14.4102    3.4783   -3.0659 C.3     1  UNL1        0.0000
     10 C          12.2145    6.0429   -1.4744 C.ar    1  UNL1        0.0000
     11 H          12.3857    6.5448   -2.4155 H       1  UNL1        0.0000
     12 C          17.0217    8.0377   -0.5028 C.3     1  UNL1        0.0000
     13 H          17.7966    7.3086   -0.2798 H       1  UNL1        0.0000
     14 H          17.1248    8.8805    0.1756 H       1  UNL1        0.0000
     15 H          17.1625    8.3848   -1.5223 H       1  UNL1        0.0000
     16 C          14.5636    8.4651   -0.5895 C.3     1  UNL1        0.0000
     17 H          14.6764    8.8866   -1.5862 H       1  UNL1        0.0000
     18 H          14.6652    9.2666    0.1376 H       1  UNL1        0.0000
     19 H          13.5662    8.0422   -0.4948 H       1  UNL1        0.0000
     20 C          17.0154    8.6473   -4.4221 C.3     1  UNL1        0.0000
     21 H          18.0246    8.4234   -4.0914 H       1  UNL1        0.0000
     22 H          16.6011    9.3788   -3.7341 H       1  UNL1        0.0000
     23 H          17.0881    9.1272   -5.3937 H       1  UNL1        0.0000
     24 C          14.1203    7.6627   -4.5642 C.3     1  UNL1        0.0000
     25 H          13.9831    8.4166   -5.3359 H       1  UNL1        0.0000
     26 H          13.8241    8.1113   -3.6202 H       1  UNL1        0.0000
     27 H          13.4288    6.8533   -4.7776 H       1  UNL1        0.0000
     28 C          13.4607    3.9018   -4.1949 C.3     1  UNL1        0.0000
     29 H          12.6376    4.4918   -3.7982 H       1  UNL1        0.0000
     30 H          13.0476    3.0196   -4.6775 H       1  UNL1        0.0000
     31 H          13.9930    4.4894   -4.9384 H       1  UNL1        0.0000
     32 C          16.2873    6.2133   -6.1922 C.3     1  UNL1        0.0000
     33 H          15.7584    5.2710   -6.3029 H       1  UNL1        0.0000
     34 H          17.3452    6.0081   -6.3182 H       1  UNL1        0.0000
     35 H          15.9821    6.8518   -7.0164 H       1  UNL1        0.0000
     36 C          13.6423    2.6156   -2.0603 C.3     1  UNL1        0.0000
     37 H          14.2468    2.4227   -1.1797 H       1  UNL1        0.0000
     38 H          13.3963    1.6620   -2.5213 H       1  UNL1        0.0000
     39 H          12.7156    3.0926   -1.7525 H       1  UNL1        0.0000
     40 C          13.0466    4.7633    0.3817 C.ar    1  UNL1        0.0000
     41 H          13.8542    4.2491    0.8763 H       1  UNL1        0.0000
     42 C          15.5154    6.8506    1.0871 C.3     1  UNL1        0.0000
     43 H          14.4858    6.5928    1.3210 H       1  UNL1        0.0000
     44 H          15.8546    7.5944    1.8031 H       1  UNL1        0.0000
     45 H          16.1358    5.9624    1.1930 H       1  UNL1        0.0000
     46 SI         19.7045    4.6523   -3.8135 Si      1  UNL1        0.0000
     47 C          10.7341    5.4103    0.3037 C.ar    1  UNL1        0.0000
     48 H           9.7492    5.4131    0.7455 H       1  UNL1        0.0000
     49 C          15.5697    2.6657   -3.6441 C.3     1  UNL1        0.0000
     50 H          16.1027    3.2524   -4.3865 H       1  UNL1        0.0000
     51 H          15.2035    1.7549   -4.1100 H       1  UNL1        0.0000
     52 H          16.2658    2.4009   -2.8510 H       1  UNL1        0.0000
     53 C          11.7818    4.7693    0.9431 C.ar    1  UNL1        0.0000
     54 H          11.6163    4.2689    1.8852 H       1  UNL1        0.0000
     55 C          10.9530    6.0464   -0.9066 C.ar    1  UNL1        0.0000
     56 H          10.1409    6.5478   -1.4119 H       1  UNL1        0.0000
     57 C          21.3571    3.8810   -3.2435 C.3     1  UNL1        0.0000
     58 H          22.0146    3.6797   -4.0847 H       1  UNL1        0.0000
     59 H          21.1955    2.9424   -2.7199 H       1  UNL1        0.0000
     60 H          21.8827    4.5492   -2.5681 H       1  UNL1        0.0000
     61 C          18.8874    3.4172   -5.0306 C.3     1  UNL1        0.0000
     62 H          19.5862    3.1446   -5.8159 H       1  UNL1        0.0000
     63 H          18.0102    3.8418   -5.5073 H       1  UNL1        0.0000
     64 H          18.5879    2.5032   -4.5290 H       1  UNL1        0.0000
     65 C          20.1265    6.2429   -4.7882 C.3     1  UNL1        0.0000
     66 H          20.5859    6.9813   -4.1399 H       1  UNL1        0.0000
     67 H          19.2446    6.6942   -5.2285 H       1  UNL1        0.0000
     68 H          20.8243    6.0293   -5.5912 H       1  UNL1        0.0000
@<TRIPOS>BOND
     1    35    32    1
     2    34    32    1
     3    33    32    1
     4    32     2    1
     5    62    61    1
     6    68    65    1
     7    63    61    1
     8    23    20    1
     9    25    24    1
    10    67    65    1
    11    61    64    1
    12    61    46    1
    13    31    28    1
    14    65    66    1
    15    65    46    1
    16    27    24    1
    17    30    28    1
    18    24     2    1
    19    24    26    1
    20     2    20    1
    21     2     1    1
    22    20    21    1
    23    20    22    1
    24    50    49    1
    25    28    29    1
    26    28     9    1
    27    51    49    1
    28    58    57    1
    29    46    57    1
    30    46     3    1
    31    49     9    1
    32    49    52    1
    33    57    59    1
    34    57    60    1
    35     9     5    1
    36     9    36    1
    37     1     5    1
    38     1     3    1
    39     1     6    1
    40    38    36    1
    41     5     7    1
    42    11    10    1
    43    36    39    1
    44    36    37    1
    45    17    16    1
    46    15    12    1
    47     7     6    1
    48     7     8    1
    49    10    55   ar
    50    10     8   ar
    51    56    55    1
    52     6     4    1
    53    55    47   ar
    54     8    40   ar
    55    16    19    1
    56    16     4    1
    57    16    18    1
    58    12     4    1
    59    12    13    1
    60    12    14    1
    61     4    42    1
    62    47    48    1
    63    47    53   ar
    64    40    41    1
    65    40    53   ar
    66    53    54    1
    67    42    45    1
    68    42    43    1
    69    42    44    1
    70     1     7    0
