@<TRIPOS>MOLECULE
1
 13 12 0 0 0
SMALL
GASTEIGER

@<TRIPOS>ATOM
      1 P           0.1734    4.3231    3.6864 P.3     1  UNL1       -0.1154
      2 C          -0.4191    5.7985    4.5885 C.3     1  UNL1       -0.0447
      3 C          -0.7645    2.9957    4.5496 C.3     1  UNL1       -0.0447
      4 C          -0.7737    4.4818    2.1326 C.3     1  UNL1       -0.0447
      5 H          -1.5071    5.7766    4.6501 H       1  UNL1        0.0277
      6 H           0.0076    5.8221    5.5885 H       1  UNL1        0.0277
      7 H          -0.0976    6.6896    4.0531 H       1  UNL1        0.0277
      8 H          -1.8243    3.2441    4.5853 H       1  UNL1        0.0277
      9 H          -0.6320    2.0544    4.0220 H       1  UNL1        0.0277
     10 H          -0.3822    2.8826    5.5611 H       1  UNL1        0.0277
     11 H          -1.8149    4.7126    2.3553 H       1  UNL1        0.0277
     12 H          -0.3285    5.2935    1.5591 H       1  UNL1        0.0277
     13 H          -0.7194    3.5568    1.5632 H       1  UNL1        0.0277
@<TRIPOS>BOND
     1    12     4    1
     2    13     4    1
     3     4    11    1
     4     4     1    1
     5     1     3    1
     6     1     2    1
     7     9     3    1
     8     7     2    1
     9     3     8    1
    10     3    10    1
    11     2     5    1
    12     2     6    1
