@<TRIPOS>MOLECULE
1
 13 12 0 0 0
SMALL
GASTEIGER

@<TRIPOS>ATOM
      1 P           1.3955    2.8373    5.7784 P.3     1  UNL1       -0.1154
      2 C           2.7732    3.9814    6.1896 C.3     1  UNL1       -0.0447
      3 C           0.9432    2.3312    7.4924 C.3     1  UNL1       -0.0447
      4 C           0.0776    4.1234    5.5653 C.3     1  UNL1       -0.0447
      5 H           3.6121    3.3976    6.5577 H       1  UNL1        0.0277
      6 H           3.0897    4.5031    5.2882 H       1  UNL1        0.0277
      7 H           2.4639    4.7071    6.9421 H       1  UNL1        0.0277
      8 H           1.0112    3.1906    8.1594 H       1  UNL1        0.0277
      9 H          -0.0742    1.9485    7.5092 H       1  UNL1        0.0277
     10 H           1.6152    1.5509    7.8343 H       1  UNL1        0.0277
     11 H          -0.1599    4.5758    6.5273 H       1  UNL1        0.0277
     12 H           0.4408    4.8983    4.8937 H       1  UNL1        0.0277
     13 H          -0.8246    3.6875    5.1405 H       1  UNL1        0.0277
@<TRIPOS>BOND
     1    12     4    1
     2    13     4    1
     3     6     2    1
     4     4     1    1
     5     4    11    1
     6     1     2    1
     7     1     3    1
     8     2     5    1
     9     2     7    1
    10     3     9    1
    11     3    10    1
    12     3     8    1
