@<TRIPOS>MOLECULE
1
 13 12 0 0 0
SMALL
GASTEIGER

@<TRIPOS>ATOM
      1 P           1.5478    2.6821    2.2457 P.3     1  UNL1       -0.1154
      2 C           2.9092    3.8983    2.0242 C.3     1  UNL1       -0.0447
      3 C           1.5023    2.0394    0.5216 C.3     1  UNL1       -0.0447
      4 C           0.1389    3.8751    2.0739 C.3     1  UNL1       -0.0447
      5 H           3.8433    3.3541    1.9043 H       1  UNL1        0.0277
      6 H           2.7310    4.5286    1.1530 H       1  UNL1        0.0277
      7 H           2.9875    4.5208    2.9137 H       1  UNL1        0.0277
      8 H           0.6051    1.4457    0.3662 H       1  UNL1        0.0277
      9 H           1.5087    2.8689   -0.1853 H       1  UNL1        0.0277
     10 H           2.3677    1.4075    0.3526 H       1  UNL1        0.0277
     11 H           0.2240    4.6575    2.8229 H       1  UNL1        0.0277
     12 H           0.1629    4.3302    1.0845 H       1  UNL1        0.0277
     13 H          -0.8143    3.3695    2.2071 H       1  UNL1        0.0277
@<TRIPOS>BOND
     1     9     3    1
     2    10     3    1
     3     8     3    1
     4     3     1    1
     5    12     4    1
     6     6     2    1
     7     5     2    1
     8     2     1    1
     9     2     7    1
    10     4    13    1
    11     4     1    1
    12     4    11    1
