@<TRIPOS>MOLECULE
1
 13 12 0 0 0
SMALL
GASTEIGER

@<TRIPOS>ATOM
      1 P          -0.0365    0.0699    4.1092 P.3     1  UNL1       -0.1154
      2 C          -1.2107    0.3633    2.7165 C.3     1  UNL1       -0.0447
      3 C          -1.2578    0.3439    5.4652 C.3     1  UNL1       -0.0447
      4 C          -0.0744   -1.7645    4.1020 C.3     1  UNL1       -0.0447
      5 H          -1.5587    1.3943    2.7469 H       1  UNL1        0.0277
      6 H          -0.7071    0.1935    1.7684 H       1  UNL1        0.0277
      7 H          -2.0677   -0.3059    2.7936 H       1  UNL1        0.0277
      8 H          -1.4775    1.4067    5.5545 H       1  UNL1        0.0277
      9 H          -2.1808   -0.1983    5.2587 H       1  UNL1        0.0277
     10 H          -0.8395   -0.0099    6.4042 H       1  UNL1        0.0277
     11 H          -1.1015   -2.1282    4.1398 H       1  UNL1        0.0277
     12 H           0.4118   -2.1275    3.2008 H       1  UNL1        0.0277
     13 H           0.4755   -2.1304    4.9646 H       1  UNL1        0.0277
@<TRIPOS>BOND
     1     6     2    1
     2     2     5    1
     3     2     7    1
     4     2     1    1
     5    12     4    1
     6     4     1    1
     7     4    11    1
     8     4    13    1
     9     1     3    1
    10     9     3    1
    11     3     8    1
    12     3    10    1
