@<TRIPOS>MOLECULE
1
 34 36 0 0 0
SMALL
GASTEIGER

@<TRIPOS>ATOM
      1 P           6.0367    1.5351    3.5184 P.3     1  UNL1       -0.0131
      2 C           6.7430    3.1999    3.2809 C.ar    1  UNL1       -0.0147
      3 C           6.2705    4.3292    3.9409 C.ar    1  UNL1       -0.0535
      4 H           5.5012    4.2351    4.6949 H       1  UNL1        0.0624
      5 C           6.7861    5.5787    3.6385 C.ar    1  UNL1       -0.0611
      6 H           6.4114    6.4508    4.1553 H       1  UNL1        0.0618
      7 C           7.7735    5.7134    2.6774 C.ar    1  UNL1       -0.0617
      8 H           8.1722    6.6897    2.4448 H       1  UNL1        0.0618
      9 C           8.2427    4.5927    2.0090 C.ar    1  UNL1       -0.0611
     10 H           9.0090    4.6951    1.2543 H       1  UNL1        0.0618
     11 C           7.7246    3.3458    2.3018 C.ar    1  UNL1       -0.0535
     12 H           8.0652    2.4675    1.7679 H       1  UNL1        0.0624
     13 C           5.2690    1.6816    5.1764 C.ar    1  UNL1       -0.0147
     14 C           3.9806    1.2247    5.4091 C.ar    1  UNL1       -0.0535
     15 H           3.4278    0.7773    4.5944 H       1  UNL1        0.0624
     16 C           3.4203    1.3180    6.6720 C.ar    1  UNL1       -0.0611
     17 H           2.4149    0.9614    6.8445 H       1  UNL1        0.0618
     18 C           4.1506    1.8635    7.7133 C.ar    1  UNL1       -0.0617
     19 H           3.7151    1.9393    8.6988 H       1  UNL1        0.0618
     20 C           5.4476    2.3023    7.4930 C.ar    1  UNL1       -0.0611
     21 H           6.0237    2.7153    8.3082 H       1  UNL1        0.0618
     22 C           6.0079    2.2087    6.2338 C.ar    1  UNL1       -0.0535
     23 H           7.0228    2.5414    6.0629 H       1  UNL1        0.0624
     24 C           7.4752    0.5510    4.0803 C.ar    1  UNL1       -0.0147
     25 C           8.7647    1.0316    4.2650 C.ar    1  UNL1       -0.0535
     26 H           9.0056    2.0599    4.0364 H       1  UNL1        0.0624
     27 C           9.7531    0.1871    4.7440 C.ar    1  UNL1       -0.0611
     28 H          10.7571    0.5634    4.8773 H       1  UNL1        0.0618
     29 C           9.4611   -1.1292    5.0553 C.ar    1  UNL1       -0.0617
     30 H          10.2371   -1.7811    5.4282 H       1  UNL1        0.0618
     31 C           8.1707   -1.6088    4.8884 C.ar    1  UNL1       -0.0611
     32 H           7.9386   -2.6348    5.1328 H       1  UNL1        0.0618
     33 C           7.1848   -0.7730    4.4022 C.ar    1  UNL1       -0.0535
     34 H           6.1739   -1.1297    4.2511 H       1  UNL1        0.0624
@<TRIPOS>BOND
     1    10     9    1
     2    12    11    1
     3     9    11   ar
     4     9     7   ar
     5    11     2   ar
     6     8     7    1
     7     7     5   ar
     8     2     1    1
     9     2     3   ar
    10     1    24    1
    11     1    13    1
    12     5     3   ar
    13     5     6    1
    14     3     4    1
    15    26    25    1
    16    24    25   ar
    17    24    33   ar
    18    34    33    1
    19    25    27   ar
    20    33    31   ar
    21    15    14    1
    22    27    28    1
    23    27    29   ar
    24    31    29   ar
    25    31    32    1
    26    29    30    1
    27    13    14   ar
    28    13    22   ar
    29    14    16   ar
    30    23    22    1
    31    22    20   ar
    32    16    17    1
    33    16    18   ar
    34    20    18   ar
    35    20    21    1
    36    18    19    1
