@<TRIPOS>MOLECULE
14
 69 72 0 0 0
SMALL
GASTEIGER

@<TRIPOS>ATOM
      1 SI          3.2209    9.6585    7.0012 Si      1  UNL1        0.0000
      2 C           4.0645   10.0853    5.3615 C.ar    1  UNL1        0.0000
      3 C           4.6189    9.0988    4.5559 C.ar    1  UNL1        0.0000
      4 C           5.2600    9.4306    3.3762 C.ar    1  UNL1        0.0000
      5 C           5.3517   10.7567    2.9862 C.ar    1  UNL1        0.0000
      6 C           4.8015   11.7492    3.7806 C.ar    1  UNL1        0.0000
      7 C           4.1648   11.4129    4.9612 C.ar    1  UNL1        0.0000
      8 C           1.5398    8.8035    6.8788 C.ar    1  UNL1        0.0000
      9 C           0.4811    9.2399    7.6668 C.ar    1  UNL1        0.0000
     10 C          -0.7585    8.6346    7.5837 C.ar    1  UNL1        0.0000
     11 C          -0.9540    7.5825    6.7041 C.ar    1  UNL1        0.0000
     12 C           0.0916    7.1461    5.9068 C.ar    1  UNL1        0.0000
     13 C           1.3304    7.7543    5.9936 C.ar    1  UNL1        0.0000
     14 P           3.0355   11.5181    8.2970 P.3     1  UNL1        0.0000
     15 P           4.6486    9.2115    8.7306 P.3     1  UNL1        0.0000
     16 B           4.9108   11.1185    8.3700 B       1  UNL1        0.0000
     17 B           3.1803   10.1405    9.6247 B       1  UNL1        0.0000
     18 N           6.0317   11.8979    8.2291 N.3     1  UNL1        0.0000
     19 N           2.5517    9.9414   10.8298 N.3     1  UNL1        0.0000
     20 C           5.9112   13.3413    8.0153 C.3     1  UNL1        0.0000
     21 C           6.5386   13.7872    6.6947 C.3     1  UNL1        0.0000
     22 C           6.4618   14.1343    9.2001 C.3     1  UNL1        0.0000
     23 C           7.3964   11.3599    8.2797 C.3     1  UNL1        0.0000
     24 C           7.6229   10.3559    7.1498 C.3     1  UNL1        0.0000
     25 C           7.6875   10.7255    9.6387 C.3     1  UNL1        0.0000
     26 C           2.8589    8.8161   11.7211 C.3     1  UNL1        0.0000
     27 C           4.3101    8.8714   12.1960 C.3     1  UNL1        0.0000
     28 C           2.5614    7.4841   11.0340 C.3     1  UNL1        0.0000
     29 C           1.5256   10.8751   11.2972 C.3     1  UNL1        0.0000
     30 C           1.9816   11.6398   12.5393 C.3     1  UNL1        0.0000
     31 C           0.1745   10.1942   11.5189 C.3     1  UNL1        0.0000
     32 H           4.5554    8.0658    4.8643 H       1  UNL1        0.0000
     33 H           5.6909    8.6552    2.7597 H       1  UNL1        0.0000
     34 H           5.8514   11.0165    2.0645 H       1  UNL1        0.0000
     35 H           4.8661   12.7845    3.4777 H       1  UNL1        0.0000
     36 H           3.7332   12.1895    5.5831 H       1  UNL1        0.0000
     37 H           0.6317   10.0750    8.3417 H       1  UNL1        0.0000
     38 H          -1.5751    8.9883    8.1968 H       1  UNL1        0.0000
     39 H          -1.9220    7.1086    6.6346 H       1  UNL1        0.0000
     40 H          -0.0613    6.3314    5.2142 H       1  UNL1        0.0000
     41 H           2.1432    7.4201    5.3673 H       1  UNL1        0.0000
     42 H           4.8331   13.5440    7.9557 H       1  UNL1        0.0000
     43 H           6.2252   14.8046    6.4756 H       1  UNL1        0.0000
     44 H           6.2054   13.1404    5.8864 H       1  UNL1        0.0000
     45 H           7.6252   13.7680    6.7336 H       1  UNL1        0.0000
     46 H           6.2528   15.1912    9.0573 H       1  UNL1        0.0000
     47 H           7.5371   14.0085    9.3041 H       1  UNL1        0.0000
     48 H           5.9805   13.8095   10.1204 H       1  UNL1        0.0000
     49 H           8.0845   12.1978    8.1385 H       1  UNL1        0.0000
     50 H           8.6632   10.0409    7.1348 H       1  UNL1        0.0000
     51 H           7.3762   10.8001    6.1882 H       1  UNL1        0.0000
     52 H           6.9943    9.4800    7.2954 H       1  UNL1        0.0000
     53 H           8.7267   10.4099    9.6872 H       1  UNL1        0.0000
     54 H           7.0514    9.8552    9.7886 H       1  UNL1        0.0000
     55 H           7.4993   11.4367   10.4396 H       1  UNL1        0.0000
     56 H           2.2093    8.9044   12.5961 H       1  UNL1        0.0000
     57 H           4.4947    8.0831   12.9215 H       1  UNL1        0.0000
     58 H           4.5236    9.8317   12.6597 H       1  UNL1        0.0000
     59 H           4.9844    8.7341   11.3526 H       1  UNL1        0.0000
     60 H           2.7056    6.6645   11.7334 H       1  UNL1        0.0000
     61 H           3.2290    7.3423   10.1868 H       1  UNL1        0.0000
     62 H           1.5357    7.4612   10.6733 H       1  UNL1        0.0000
     63 H           1.4003   11.6088   10.4890 H       1  UNL1        0.0000
     64 H           1.2438   12.3979   12.7892 H       1  UNL1        0.0000
     65 H           2.9305   12.1348   12.3426 H       1  UNL1        0.0000
     66 H           2.1007   10.9813   13.3967 H       1  UNL1        0.0000
     67 H          -0.5943   10.9543   11.6312 H       1  UNL1        0.0000
     68 H           0.1726    9.5756   12.4133 H       1  UNL1        0.0000
     69 H          -0.0783    9.5713   10.6639 H       1  UNL1        0.0000
@<TRIPOS>BOND
     1    34     5    1
     2    33     4    1
     3     5     4   ar
     4     5     6   ar
     5     4     3   ar
     6    35     6    1
     7     6     7   ar
     8     3    32    1
     9     3     2   ar
    10     7     2   ar
    11     7    36    1
    12    40    12    1
    13     2     1    1
    14    41    13    1
    15    44    21    1
    16    12    13   ar
    17    12    11   ar
    18    13     8   ar
    19    51    24    1
    20    43    21    1
    21    39    11    1
    22    21    45    1
    23    21    20    1
    24    11    10   ar
    25     8     1    1
    26     8     9   ar
    27     1    14    1
    28     1    15    1
    29    50    24    1
    30    24    52    1
    31    24    23    1
    32    10     9   ar
    33    10    38    1
    34     9    37    1
    35    42    20    1
    36    20    18    1
    37    20    22    1
    38    49    23    1
    39    18    23    1
    40    18    16    1
    41    23    25    1
    42    14    16    1
    43    14    17    1
    44    16    15    1
    45    15    17    1
    46    46    22    1
    47    22    47    1
    48    22    48    1
    49    17    19    1
    50    25    53    1
    51    25    54    1
    52    25    55    1
    53    61    28    1
    54    63    29    1
    55    69    31    1
    56    62    28    1
    57    19    29    1
    58    19    26    1
    59    28    26    1
    60    28    60    1
    61    29    31    1
    62    29    30    1
    63    59    27    1
    64    31    67    1
    65    31    68    1
    66    26    27    1
    67    26    56    1
    68    27    58    1
    69    27    57    1
    70    65    30    1
    71    30    64    1
    72    30    66    1
