@<TRIPOS>MOLECULE
1
 69 72 0 0 0
SMALL
GASTEIGER

@<TRIPOS>ATOM
      1 P          -1.9327   11.8423    9.5866 P.3     1  UNL1        0.0000
      2 N          -1.7321   14.1270   11.6481 N.3     1  UNL1        0.0000
      3 C          -0.2635   14.3049   11.5576 C.3     1  UNL1        0.0000
      4 C           0.2769   15.1819   12.6974 C.3     1  UNL1        0.0000
      5 C          -0.3798   16.5529   12.8186 C.3     1  UNL1        0.0000
      6 C          -1.8105   16.5213   12.2908 C.3     1  UNL1        0.0000
      7 C          -2.5064   15.1542   12.3829 C.3     1  UNL1        0.0000
      8 C           0.4262   12.9456   11.7457 C.3     1  UNL1        0.0000
      9 C           0.1118   14.8806   10.1891 C.3     1  UNL1        0.0000
     10 C          -3.8793   15.3614   11.7229 C.3     1  UNL1        0.0000
     11 C          -2.7355   14.7188   13.8340 C.3     1  UNL1        0.0000
     12 B          -2.3451   13.0289   11.0685 B       1  UNL1        0.0000
     13 B          -3.8274   12.2609    9.4318 B       1  UNL1        0.0000
     14 N          -4.7003   12.6219    8.4185 N.3     1  UNL1        0.0000
     15 C          -4.2037   13.1681    7.1351 C.3     1  UNL1        0.0000
     16 C          -5.2485   14.0796    6.4729 C.3     1  UNL1        0.0000
     17 C          -6.6056   13.4257    6.2294 C.3     1  UNL1        0.0000
     18 C          -6.8548   12.2981    7.2255 C.3     1  UNL1        0.0000
     19 C          -6.1675   12.4817    8.5867 C.3     1  UNL1        0.0000
     20 C          -2.9939   14.0757    7.4058 C.3     1  UNL1        0.0000
     21 C          -3.7770   12.0348    6.1970 C.3     1  UNL1        0.0000
     22 C          -6.7390   13.6804    9.3503 C.3     1  UNL1        0.0000
     23 C          -6.4928   11.2031    9.3755 C.3     1  UNL1        0.0000
     24 P          -4.1187   12.2302   11.3713 P.3     1  UNL1        0.0000
     25 SI         -2.8356   10.3694   11.0766 Si      1  UNL1        0.0000
     26 C          -1.6849    9.8688   12.5199 C.3     1  UNL1        0.0000
     27 C          -3.5417    8.8301   10.1867 C.3     1  UNL1        0.0000
     28 H           0.1515   14.6299   13.6302 H       1  UNL1        0.0000
     29 H           1.3500   15.3019   12.5428 H       1  UNL1        0.0000
     30 H           0.1902   17.2967   12.2598 H       1  UNL1        0.0000
     31 H          -0.3707   16.8606   13.8653 H       1  UNL1        0.0000
     32 H          -2.4152   17.2457   12.8383 H       1  UNL1        0.0000
     33 H          -1.8236   16.8215   11.2413 H       1  UNL1        0.0000
     34 H           0.2327   12.2727   10.9142 H       1  UNL1        0.0000
     35 H           0.0814   12.4745   12.6636 H       1  UNL1        0.0000
     36 H           1.5026   13.0860   11.8121 H       1  UNL1        0.0000
     37 H          -0.2652   15.8908   10.0616 H       1  UNL1        0.0000
     38 H          -0.3090   14.2544    9.4021 H       1  UNL1        0.0000
     39 H           1.1922   14.8973   10.0727 H       1  UNL1        0.0000
     40 H          -4.5644   14.5561   11.9753 H       1  UNL1        0.0000
     41 H          -3.7780   15.4072   10.6402 H       1  UNL1        0.0000
     42 H          -4.3178   16.2938   12.0708 H       1  UNL1        0.0000
     43 H          -3.3788   15.4353   14.3382 H       1  UNL1        0.0000
     44 H          -1.8062   14.6403   14.3883 H       1  UNL1        0.0000
     45 H          -3.2265   13.7470   13.8389 H       1  UNL1        0.0000
     46 H          -4.8342   14.4270    5.5254 H       1  UNL1        0.0000
     47 H          -5.3703   14.9585    7.1085 H       1  UNL1        0.0000
     48 H          -7.3866   14.1828    6.3145 H       1  UNL1        0.0000
     49 H          -6.6562   13.0241    5.2162 H       1  UNL1        0.0000
     50 H          -7.9271   12.1974    7.3992 H       1  UNL1        0.0000
     51 H          -6.5098   11.3510    6.8078 H       1  UNL1        0.0000
     52 H          -2.1112   13.4963    7.6684 H       1  UNL1        0.0000
     53 H          -3.2150   14.7675    8.2174 H       1  UNL1        0.0000
     54 H          -2.7555   14.6509    6.5140 H       1  UNL1        0.0000
     55 H          -4.6264   11.4596    5.8426 H       1  UNL1        0.0000
     56 H          -3.1004   11.3628    6.7248 H       1  UNL1        0.0000
     57 H          -3.2537   12.4409    5.3352 H       1  UNL1        0.0000
     58 H          -6.5821   14.6131    8.8186 H       1  UNL1        0.0000
     59 H          -6.2528   13.7500   10.3216 H       1  UNL1        0.0000
     60 H          -7.8062   13.5453    9.5059 H       1  UNL1        0.0000
     61 H          -6.2308   11.3004   10.4247 H       1  UNL1        0.0000
     62 H          -5.9551   10.3553    8.9586 H       1  UNL1        0.0000
     63 H          -7.5594   11.0005    9.3146 H       1  UNL1        0.0000
     64 H          -1.5486   10.6825   13.2243 H       1  UNL1        0.0000
     65 H          -0.7099    9.5661   12.1516 H       1  UNL1        0.0000
     66 H          -2.1175    9.0299   13.0526 H       1  UNL1        0.0000
     67 H          -3.8377    9.0619    9.1681 H       1  UNL1        0.0000
     68 H          -4.4031    8.4347   10.7135 H       1  UNL1        0.0000
     69 H          -2.7862    8.0526   10.1494 H       1  UNL1        0.0000
@<TRIPOS>BOND
     1    49    17    1
     2    57    21    1
     3    46    16    1
     4    55    21    1
     5    21    56    1
     6    21    15    1
     7    17    48    1
     8    17    16    1
     9    17    18    1
    10    16    47    1
    11    16    15    1
    12    54    20    1
    13    51    18    1
    14    15    20    1
    15    15    14    1
    16    18    50    1
    17    18    19    1
    18    20    52    1
    19    20    53    1
    20    14    19    1
    21    14    13    1
    22    19    22    1
    23    19    23    1
    24    58    22    1
    25    62    23    1
    26    67    27    1
    27    63    23    1
    28    22    60    1
    29    22    59    1
    30    23    61    1
    31    38     9    1
    32    13     1    1
    33    13    24    1
    34     1    12    1
    35     1    25    1
    36    37     9    1
    37    39     9    1
    38    69    27    1
    39    27    68    1
    40    27    25    1
    41     9     3    1
    42    41    10    1
    43    34     8    1
    44    12    24    1
    45    12     2    1
    46    25    24    1
    47    25    26    1
    48    33     6    1
    49     3     2    1
    50     3     8    1
    51     3     4    1
    52     2     7    1
    53    10    40    1
    54    10    42    1
    55    10     7    1
    56     8    36    1
    57     8    35    1
    58    65    26    1
    59    30     5    1
    60     6     7    1
    61     6     5    1
    62     6    32    1
    63     7    11    1
    64    26    66    1
    65    26    64    1
    66    29     4    1
    67     4     5    1
    68     4    28    1
    69     5    31    1
    70    11    45    1
    71    11    43    1
    72    11    44    1
