@<TRIPOS>MOLECULE
1
 13 12 0 0 0
SMALL
GASTEIGER

@<TRIPOS>ATOM
      1 P           5.3441    0.5795    5.7972 P.3     1  UNL1       -0.1154
      2 C           6.3626    1.2855    7.1430 C.3     1  UNL1       -0.0447
      3 C           3.7324    0.3845    6.6843 C.3     1  UNL1       -0.0447
      4 C           5.8944   -1.1672    5.8333 C.3     1  UNL1       -0.0447
      5 H           7.4082    1.2343    6.8442 H       1  UNL1        0.0277
      6 H           6.2158    0.7255    8.0668 H       1  UNL1        0.0277
      7 H           6.0851    2.3274    7.2920 H       1  UNL1        0.0277
      8 H           3.1211   -0.3582    6.1744 H       1  UNL1        0.0277
      9 H           3.1996    1.3313    6.7101 H       1  UNL1        0.0277
     10 H           3.9125    0.0487    7.7046 H       1  UNL1        0.0277
     11 H           5.2744   -1.7596    5.1599 H       1  UNL1        0.0277
     12 H           5.8208   -1.5643    6.8459 H       1  UNL1        0.0277
     13 H           6.9281   -1.2164    5.4902 H       1  UNL1        0.0277
@<TRIPOS>BOND
     1    11     4    1
     2    13     4    1
     3     1     4    1
     4     1     3    1
     5     1     2    1
     6     4    12    1
     7     8     3    1
     8     3     9    1
     9     3    10    1
    10     5     2    1
    11     2     7    1
    12     2     6    1
