@<TRIPOS>MOLECULE
1
 13 12 0 0 0
SMALL
GASTEIGER

@<TRIPOS>ATOM
      1 P           7.0199    2.2565    1.5742 P.3     1  UNL1       -0.1154
      2 C           8.3691    3.4283    1.9639 C.3     1  UNL1       -0.0447
      3 C           7.9615    0.8398    0.8901 C.3     1  UNL1       -0.0447
      4 C           6.4449    2.9820   -0.0278 C.3     1  UNL1       -0.0447
      5 H           8.9379    3.0405    2.8079 H       1  UNL1        0.0277
      6 H           7.9409    4.3880    2.2493 H       1  UNL1        0.0277
      7 H           9.0263    3.5574    1.1036 H       1  UNL1        0.0277
      8 H           8.5127    0.3535    1.6946 H       1  UNL1        0.0277
      9 H           8.6559    1.1853    0.1241 H       1  UNL1        0.0277
     10 H           7.2670    0.1194    0.4566 H       1  UNL1        0.0277
     11 H           5.7370    2.3103   -0.5092 H       1  UNL1        0.0277
     12 H           7.3036    3.1192   -0.6842 H       1  UNL1        0.0277
     13 H           5.9713    3.9461    0.1376 H       1  UNL1        0.0277
@<TRIPOS>BOND
     1    12     4    1
     2    11     4    1
     3     4    13    1
     4     4     1    1
     5     9     3    1
     6    10     3    1
     7     3     1    1
     8     3     8    1
     9     7     2    1
    10     1     2    1
    11     2     6    1
    12     2     5    1
