@<TRIPOS>MOLECULE
1
 13 12 0 0 0
SMALL
GASTEIGER

@<TRIPOS>ATOM
      1 P           3.5033    1.8878    2.8947 P.3     1  UNL1       -0.1154
      2 C           2.3788    0.4570    3.1833 C.3     1  UNL1       -0.0447
      3 C           2.4314    3.2262    3.5464 C.3     1  UNL1       -0.0447
      4 C           3.2050    2.0744    1.0836 C.3     1  UNL1       -0.0447
      5 H           2.2525    0.3034    4.2528 H       1  UNL1        0.0277
      6 H           2.8159   -0.4385    2.7454 H       1  UNL1        0.0277
      7 H           1.4066    0.6486    2.7299 H       1  UNL1        0.0277
      8 H           2.9491    4.1794    3.4769 H       1  UNL1        0.0277
      9 H           2.2062    3.0246    4.5918 H       1  UNL1        0.0277
     10 H           1.5012    3.2705    2.9806 H       1  UNL1        0.0277
     11 H           3.6086    3.0273    0.7496 H       1  UNL1        0.0277
     12 H           2.1406    2.0297    0.8544 H       1  UNL1        0.0277
     13 H           3.7197    1.2623    0.5697 H       1  UNL1        0.0277
@<TRIPOS>BOND
     1    13     4    1
     2    11     4    1
     3    12     4    1
     4     4     1    1
     5     7     2    1
     6     6     2    1
     7     1     2    1
     8     1     3    1
     9    10     3    1
    10     2     5    1
    11     8     3    1
    12     3     9    1
