@<TRIPOS>MOLECULE
1
 34 36 0 0 0
SMALL
GASTEIGER

@<TRIPOS>ATOM
      1 P          10.5326    9.3852    4.4744 P.3     1  UNL1       -0.0131
      2 C          10.8243    7.3891    2.5110 C.ar    1  UNL1       -0.0535
      3 H          11.3750    8.1291    1.9495 H       1  UNL1        0.0624
      4 C          10.6506    6.1150    1.9966 C.ar    1  UNL1       -0.0611
      5 H          11.0424    5.8754    1.0195 H       1  UNL1        0.0618
      6 C           9.9845    5.1512    2.7326 C.ar    1  UNL1       -0.0617
      7 H           9.8530    4.1566    2.3321 H       1  UNL1        0.0618
      8 C           9.4910    5.4611    3.9911 C.ar    1  UNL1       -0.0611
      9 H           8.9751    4.7092    4.5708 H       1  UNL1        0.0618
     10 C           9.6581    6.7315    4.5063 C.ar    1  UNL1       -0.0535
     11 H           9.2698    6.9748    5.4867 H       1  UNL1        0.0624
     12 C          10.3238    7.7070    3.7661 C.ar    1  UNL1       -0.0147
     13 C          11.0848    8.8418    6.1327 C.ar    1  UNL1       -0.0147
     14 C          12.2597    8.0893    6.1330 C.ar    1  UNL1       -0.0535
     15 H          12.7311    7.8504    5.1881 H       1  UNL1        0.0624
     16 C          12.8124    7.6585    7.3224 C.ar    1  UNL1       -0.0611
     17 H          13.7208    7.0743    7.3130 H       1  UNL1        0.0618
     18 C          12.2065    7.9807    8.5266 C.ar    1  UNL1       -0.0617
     19 H          12.6400    7.6494    9.4587 H       1  UNL1        0.0618
     20 C          11.0395    8.7241    8.5310 C.ar    1  UNL1       -0.0611
     21 H          10.5584    8.9699    9.4669 H       1  UNL1        0.0618
     22 C          10.4767    9.1544    7.3408 C.ar    1  UNL1       -0.0535
     23 H           9.5561    9.7187    7.3631 H       1  UNL1        0.0624
     24 C           8.7862    9.8667    4.7286 C.ar    1  UNL1       -0.0147
     25 C           7.7410    9.2558    4.0406 C.ar    1  UNL1       -0.0535
     26 H           7.9353    8.4111    3.3936 H       1  UNL1        0.0624
     27 C           6.4445    9.7167    4.1833 C.ar    1  UNL1       -0.0611
     28 H           5.6427    9.2293    3.6475 H       1  UNL1        0.0618
     29 C           6.1731   10.7989    5.0031 C.ar    1  UNL1       -0.0617
     30 H           5.1598   11.1565    5.1114 H       1  UNL1        0.0618
     31 C           7.2091   11.4270    5.6739 C.ar    1  UNL1       -0.0611
     32 H           7.0106   12.2825    6.3030 H       1  UNL1        0.0618
     33 C           8.5058   10.9714    5.5302 C.ar    1  UNL1       -0.0535
     34 H           9.3099   11.4886    6.0314 H       1  UNL1        0.0624
@<TRIPOS>BOND
     1     5     4    1
     2     3     2    1
     3     4     2   ar
     4     4     6   ar
     5     7     6    1
     6     2    12   ar
     7     6     8   ar
     8    26    25    1
     9    28    27    1
    10    12     1    1
    11    12    10   ar
    12     8    10   ar
    13     8     9    1
    14    25    27   ar
    15    25    24   ar
    16    27    29   ar
    17     1    24    1
    18     1    13    1
    19    10    11    1
    20    24    33   ar
    21    29    30    1
    22    29    31   ar
    23    15    14    1
    24    33    31   ar
    25    33    34    1
    26    31    32    1
    27    13    14   ar
    28    13    22   ar
    29    14    16   ar
    30    17    16    1
    31    16    18   ar
    32    22    23    1
    33    22    20   ar
    34    18    20   ar
    35    18    19    1
    36    20    21    1
