@<TRIPOS>MOLECULE
1
 34 36 0 0 0
SMALL
GASTEIGER

@<TRIPOS>ATOM
      1 P          11.8620    3.5996   12.9474 P.3     1  UNL1       -0.0131
      2 C          13.5529    4.2148   12.6456 C.ar    1  UNL1       -0.0147
      3 C          13.6757    5.5563   12.2884 C.ar    1  UNL1       -0.0535
      4 H          12.7892    6.1740   12.2838 H       1  UNL1        0.0624
      5 C          14.9041    6.0785   11.9327 C.ar    1  UNL1       -0.0611
      6 H          14.9916    7.1216   11.6646 H       1  UNL1        0.0618
      7 C          16.0224    5.2589   11.9079 C.ar    1  UNL1       -0.0617
      8 H          16.9834    5.6628   11.6250 H       1  UNL1        0.0618
      9 C          15.9021    3.9183   12.2325 C.ar    1  UNL1       -0.0611
     10 H          16.7697    3.2750   12.1980 H       1  UNL1        0.0618
     11 C          14.6731    3.3939   12.5950 C.ar    1  UNL1       -0.0535
     12 H          14.5861    2.3441   12.8382 H       1  UNL1        0.0624
     13 C          12.1804    1.9951   13.7796 C.ar    1  UNL1       -0.0147
     14 C          13.0018    1.9198   14.9020 C.ar    1  UNL1       -0.0535
     15 H          13.4774    2.8167   15.2768 H       1  UNL1        0.0624
     16 C          13.2072    0.7062   15.5302 C.ar    1  UNL1       -0.0611
     17 H          13.8494    0.6503   16.3974 H       1  UNL1        0.0618
     18 C          12.5871   -0.4382   15.0522 C.ar    1  UNL1       -0.0617
     19 H          12.7485   -1.3850   15.5466 H       1  UNL1        0.0618
     20 C          11.7567   -0.3655   13.9467 C.ar    1  UNL1       -0.0611
     21 H          11.2656   -1.2550   13.5797 H       1  UNL1        0.0618
     22 C          11.5537    0.8481   13.3130 C.ar    1  UNL1       -0.0535
     23 H          10.9029    0.9289   12.4533 H       1  UNL1        0.0624
     24 C          11.3762    4.4872   14.4738 C.ar    1  UNL1       -0.0147
     25 C          12.0960    5.5063   15.0840 C.ar    1  UNL1       -0.0535
     26 H          13.0246    5.8534   14.6547 H       1  UNL1        0.0624
     27 C          11.6297    6.0796   16.2557 C.ar    1  UNL1       -0.0611
     28 H          12.1951    6.8731   16.7232 H       1  UNL1        0.0618
     29 C          10.4503    5.6395   16.8299 C.ar    1  UNL1       -0.0617
     30 H          10.0916    6.0911   17.7430 H       1  UNL1        0.0618
     31 C           9.7330    4.6145   16.2321 C.ar    1  UNL1       -0.0611
     32 H           8.8147    4.2642   16.6798 H       1  UNL1        0.0618
     33 C          10.1931    4.0441   15.0623 C.ar    1  UNL1       -0.0535
     34 H           9.6417    3.2457   14.5866 H       1  UNL1        0.0624
@<TRIPOS>BOND
     1     8     7    1
     2     6     5    1
     3     7     5   ar
     4     7     9   ar
     5     5     3   ar
     6    10     9    1
     7     9    11   ar
     8     4     3    1
     9     3     2   ar
    10    23    22    1
    11    11     2   ar
    12    11    12    1
    13     2     1    1
    14     1    13    1
    15     1    24    1
    16    22    13   ar
    17    22    20   ar
    18    21    20    1
    19    13    14   ar
    20    20    18   ar
    21    24    33   ar
    22    24    25   ar
    23    34    33    1
    24    26    25    1
    25    14    15    1
    26    14    16   ar
    27    18    16   ar
    28    18    19    1
    29    33    31   ar
    30    25    27   ar
    31    16    17    1
    32    31    32    1
    33    31    29   ar
    34    27    28    1
    35    27    29   ar
    36    29    30    1
