@<TRIPOS>MOLECULE
1
 34 36 0 0 0
SMALL
GASTEIGER

@<TRIPOS>ATOM
      1 P           0.2819    9.2596    8.3896 P.3     1  UNL1       -0.0131
      2 C           1.7303    9.7845    9.3492 C.ar    1  UNL1       -0.0147
      3 C           1.7060    9.6070   10.7325 C.ar    1  UNL1       -0.0535
      4 H           0.8032    9.2402   11.2083 H       1  UNL1        0.0624
      5 C           2.8267    9.8952   11.4864 C.ar    1  UNL1       -0.0611
      6 H           2.8031    9.7619   12.5579 H       1  UNL1        0.0618
      7 C           3.9827   10.3429   10.8651 C.ar    1  UNL1       -0.0617
      8 H           4.8600   10.5625   11.4550 H       1  UNL1        0.0618
      9 C           4.0179   10.4967    9.4892 C.ar    1  UNL1       -0.0611
     10 H           4.9232   10.8321    9.0049 H       1  UNL1        0.0618
     11 C           2.8978   10.2144    8.7273 C.ar    1  UNL1       -0.0535
     12 H           2.9278   10.3243    7.6513 H       1  UNL1        0.0624
     13 C          -1.1107   10.1530    9.1558 C.ar    1  UNL1       -0.0147
     14 C          -0.9623   11.1815   10.0805 C.ar    1  UNL1       -0.0535
     15 H           0.0212   11.4749   10.4210 H       1  UNL1        0.0624
     16 C          -2.0810   11.8283   10.5758 C.ar    1  UNL1       -0.0611
     17 H          -1.9607   12.6206   11.3002 H       1  UNL1        0.0618
     18 C          -3.3471   11.4650   10.1489 C.ar    1  UNL1       -0.0617
     19 H          -4.2156   11.9706   10.5437 H       1  UNL1        0.0618
     20 C          -3.4987   10.4534    9.2142 C.ar    1  UNL1       -0.0611
     21 H          -4.4838   10.1707    8.8742 H       1  UNL1        0.0618
     22 C          -2.3860    9.8007    8.7200 C.ar    1  UNL1       -0.0535
     23 H          -2.5013    9.0093    7.9882 H       1  UNL1        0.0624
     24 C           0.4510   10.2461    6.8650 C.ar    1  UNL1       -0.0147
     25 C           0.4835   11.6359    6.9769 C.ar    1  UNL1       -0.0535
     26 H           0.4120   12.0964    7.9530 H       1  UNL1        0.0624
     27 C           0.6099   12.4185    5.8466 C.ar    1  UNL1       -0.0611
     28 H           0.6359   13.4943    5.9386 H       1  UNL1        0.0618
     29 C           0.7019   11.8251    4.5962 C.ar    1  UNL1       -0.0617
     30 H           0.7987   12.4395    3.7136 H       1  UNL1        0.0618
     31 C           0.6691   10.4466    4.4804 C.ar    1  UNL1       -0.0611
     32 H           0.7412    9.9807    3.5089 H       1  UNL1        0.0618
     33 C           0.5432    9.6565    5.6107 C.ar    1  UNL1       -0.0535
     34 H           0.5202    8.5784    5.5087 H       1  UNL1        0.0624
@<TRIPOS>BOND
     1    32    31    1
     2    30    29    1
     3    31    29   ar
     4    31    33   ar
     5    29    27   ar
     6    34    33    1
     7    33    24   ar
     8    27    28    1
     9    27    25   ar
    10    24    25   ar
    11    24     1    1
    12    25    26    1
    13    12    11    1
    14    23    22    1
    15     1    13    1
    16     1     2    1
    17    22    13   ar
    18    22    20   ar
    19    11     2   ar
    20    11     9   ar
    21    21    20    1
    22    10     9    1
    23    13    14   ar
    24    20    18   ar
    25     2     3   ar
    26     9     7   ar
    27    14    15    1
    28    14    16   ar
    29    18    19    1
    30    18    16   ar
    31    16    17    1
    32     3     4    1
    33     3     5   ar
    34     7     8    1
    35     7     5   ar
    36     5     6    1
