@<TRIPOS>MOLECULE
1
 13 12 0 0 0
SMALL
GASTEIGER

@<TRIPOS>ATOM
      1 P           0.2877    0.3348    6.7506 P.3     1  UNL1       -0.1154
      2 C          -0.7628   -1.1374    6.4292 C.3     1  UNL1       -0.0447
      3 H          -1.0898   -1.5203    7.3955 H       1  UNL1        0.0277
      4 H          -0.1875   -1.8961    5.8983 H       1  UNL1        0.0277
      5 H          -1.6366   -0.8594    5.8435 H       1  UNL1        0.0277
      6 C           1.7568   -0.4987    7.4522 C.3     1  UNL1       -0.0447
      7 H           2.0802   -1.2997    6.7859 H       1  UNL1        0.0277
      8 H           1.4835   -0.9093    8.4226 H       1  UNL1        0.0277
      9 H           2.5618    0.2255    7.5737 H       1  UNL1        0.0277
     10 C           0.9465    0.7306    5.0775 C.3     1  UNL1       -0.0447
     11 H           0.1648    1.1363    4.4409 H       1  UNL1        0.0277
     12 H           1.3615   -0.1641    4.6141 H       1  UNL1        0.0277
     13 H           1.7295    1.4800    5.1899 H       1  UNL1        0.0277
@<TRIPOS>BOND
     1    11    10    1
     2    12    10    1
     3    10    13    1
     4    10     1    1
     5     5     2    1
     6     4     2    1
     7     2     1    1
     8     2     3    1
     9     1     6    1
    10     7     6    1
    11     6     9    1
    12     6     8    1
