@<TRIPOS>MOLECULE
1
 79 81 0 0 0
SMALL
GASTEIGER

@<TRIPOS>ATOM
      1 P           2.6936   11.0096   13.4163 P.3     1  UNL1        0.0000
      2 B           3.4298    9.9913   11.9345 B       1  UNL1        0.0000
      3 N           2.4754    9.2046   11.1935 N.3     1  UNL1        0.0000
      4 N           4.8101    9.9682   11.6919 N.3     1  UNL1        0.0000
      5 C           1.3768    9.9004   10.5396 C.3     1  UNL1        0.0000
      6 C          -0.0333    9.4171   10.8827 C.3     1  UNL1        0.0000
      7 C           1.5604    9.9645    9.0153 C.3     1  UNL1        0.0000
      8 C           2.5547    7.7516   11.3066 C.3     1  UNL1        0.0000
      9 C           2.3327    6.9744   10.0079 C.3     1  UNL1        0.0000
     10 C           1.6393    7.2015   12.4139 C.3     1  UNL1        0.0000
     11 C           5.7210   10.5475   12.6791 C.3     1  UNL1        0.0000
     12 C           6.7911   11.4852   12.1263 C.3     1  UNL1        0.0000
     13 C           6.3565    9.4931   13.5915 C.3     1  UNL1        0.0000
     14 C           5.3114    9.3413   10.4627 C.3     1  UNL1        0.0000
     15 C           6.3796    8.2692   10.6717 C.3     1  UNL1        0.0000
     16 C           5.7701   10.3489    9.3998 C.3     1  UNL1        0.0000
     17 SI          2.6896   13.2402   13.0225 Si      1  UNL1        0.0000
     18 C           1.6916   15.1262   14.9412 C.ar    1  UNL1        0.0000
     19 C           0.7955   15.6139   15.8746 C.ar    1  UNL1        0.0000
     20 C          -0.3854   14.9352   16.1233 C.ar    1  UNL1        0.0000
     21 C          -0.6677   13.7702   15.4303 C.ar    1  UNL1        0.0000
     22 C           0.2326   13.2861   14.4997 C.ar    1  UNL1        0.0000
     23 C           1.4260   13.9537   14.2408 C.ar    1  UNL1        0.0000
     24 C           0.9549   14.1125   10.8904 C.ar    1  UNL1        0.0000
     25 C           0.5953   14.3020    9.5675 C.ar    1  UNL1        0.0000
     26 C           1.4617   13.9325    8.5526 C.ar    1  UNL1        0.0000
     27 C           2.6882   13.3692    8.8658 C.ar    1  UNL1        0.0000
     28 C           3.0389   13.1766   10.1886 C.ar    1  UNL1        0.0000
     29 C           2.1819   13.5474   11.2205 C.ar    1  UNL1        0.0000
     30 C           5.1070   14.7478   12.5047 C.ar    1  UNL1        0.0000
     31 C           6.3598   15.2402   12.8259 C.ar    1  UNL1        0.0000
     32 C           6.9332   14.9346   14.0489 C.ar    1  UNL1        0.0000
     33 C           6.2438   14.1431   14.9535 C.ar    1  UNL1        0.0000
     34 C           4.9913   13.6573   14.6287 C.ar    1  UNL1        0.0000
     35 C           4.4074   13.9432   13.3972 C.ar    1  UNL1        0.0000
     36 H           1.3651   10.8669   13.0261 H       1  UNL1        0.0000
     37 H           1.4578   10.9407   10.8903 H       1  UNL1        0.0000
     38 H          -0.1726    9.3616   11.9593 H       1  UNL1        0.0000
     39 H          -0.2421    8.4435   10.4498 H       1  UNL1        0.0000
     40 H          -0.7537   10.1259   10.4791 H       1  UNL1        0.0000
     41 H           0.9057   10.7295    8.6044 H       1  UNL1        0.0000
     42 H           1.3218    9.0183    8.5406 H       1  UNL1        0.0000
     43 H           2.5874   10.2289    8.7779 H       1  UNL1        0.0000
     44 H           3.5812    7.5558   11.6384 H       1  UNL1        0.0000
     45 H           2.9752    7.3434    9.2123 H       1  UNL1        0.0000
     46 H           1.2989    7.0317    9.6807 H       1  UNL1        0.0000
     47 H           2.5714    5.9274   10.1817 H       1  UNL1        0.0000
     48 H           1.6446    7.8786   13.2685 H       1  UNL1        0.0000
     49 H           2.0060    6.2324   12.7440 H       1  UNL1        0.0000
     50 H           0.6168    7.0769   12.0718 H       1  UNL1        0.0000
     51 H           5.0772   11.1662   13.3261 H       1  UNL1        0.0000
     52 H           6.3563   12.2267   11.4621 H       1  UNL1        0.0000
     53 H           7.5747   10.9429   11.6054 H       1  UNL1        0.0000
     54 H           7.2475   12.0133   12.9606 H       1  UNL1        0.0000
     55 H           5.6056    8.7745   13.9117 H       1  UNL1        0.0000
     56 H           6.7636    9.9815   14.4727 H       1  UNL1        0.0000
     57 H           7.1658    8.9624   13.1011 H       1  UNL1        0.0000
     58 H           4.4336    8.8491   10.0400 H       1  UNL1        0.0000
     59 H           6.0808    7.5715   11.4491 H       1  UNL1        0.0000
     60 H           7.3412    8.7031   10.9308 H       1  UNL1        0.0000
     61 H           6.5045    7.7134    9.7447 H       1  UNL1        0.0000
     62 H           5.0567   11.1645    9.3225 H       1  UNL1        0.0000
     63 H           5.8133    9.8430    8.4373 H       1  UNL1        0.0000
     64 H           6.7537   10.7567    9.6047 H       1  UNL1        0.0000
     65 H           2.6168   15.6535   14.7571 H       1  UNL1        0.0000
     66 H           1.0219   16.5209   16.4158 H       1  UNL1        0.0000
     67 H          -1.0814   15.3096   16.8594 H       1  UNL1        0.0000
     68 H          -1.5852   13.2332   15.6228 H       1  UNL1        0.0000
     69 H           0.0044   12.3721   13.9667 H       1  UNL1        0.0000
     70 H           0.2785   14.4068   11.6799 H       1  UNL1        0.0000
     71 H          -0.3620   14.7409    9.3268 H       1  UNL1        0.0000
     72 H           1.1830   14.0825    7.5199 H       1  UNL1        0.0000
     73 H           3.3671   13.0813    8.0757 H       1  UNL1        0.0000
     74 H           3.9896   12.7288   10.4395 H       1  UNL1        0.0000
     75 H           4.6616   14.9940   11.5514 H       1  UNL1        0.0000
     76 H           6.8904   15.8649   12.1217 H       1  UNL1        0.0000
     77 H           7.9121   15.3170   14.2988 H       1  UNL1        0.0000
     78 H           6.6810   13.9055   15.9121 H       1  UNL1        0.0000
     79 H           4.4474   13.0505   15.3412 H       1  UNL1        0.0000
@<TRIPOS>BOND
     1    72    26    1
     2    73    27    1
     3    63    16    1
     4    42     7    1
     5    26    27   ar
     6    26    25   ar
     7    41     7    1
     8    43     7    1
     9    27    28   ar
    10     7     5    1
    11    45     9    1
    12    62    16    1
    13    71    25    1
    14    16    64    1
    15    16    14    1
    16    25    24   ar
    17    46     9    1
    18    61    15    1
    19     9    47    1
    20     9     8    1
    21    58    14    1
    22    28    74    1
    23    28    29   ar
    24    39     6    1
    25    14    15    1
    26    14     4    1
    27    40     6    1
    28     5     6    1
    29     5    37    1
    30     5     3    1
    31    15    60    1
    32    15    59    1
    33     6    38    1
    34    24    29   ar
    35    24    70    1
    36     3     8    1
    37     3     2    1
    38    29    17    1
    39     8    44    1
    40     8    10    1
    41    52    12    1
    42    75    30    1
    43    53    12    1
    44     4     2    1
    45     4    11    1
    46     2     1    1
    47    50    10    1
    48    76    31    1
    49    12    11    1
    50    12    54    1
    51    10    49    1
    52    10    48    1
    53    30    31   ar
    54    30    35   ar
    55    11    51    1
    56    11    13    1
    57    31    32   ar
    58    17    35    1
    59    17     1    1
    60    17    23    1
    61    36     1    1
    62    57    13    1
    63    35    34   ar
    64    13    55    1
    65    13    56    1
    66    69    22    1
    67    32    77    1
    68    32    33   ar
    69    23    22   ar
    70    23    18   ar
    71    22    21   ar
    72    34    33   ar
    73    34    79    1
    74    65    18    1
    75    18    19   ar
    76    33    78    1
    77    21    68    1
    78    21    20   ar
    79    19    20   ar
    80    19    66    1
    81    20    67    1
