@<TRIPOS>MOLECULE
1
 13 12 0 0 0
SMALL
GASTEIGER

@<TRIPOS>ATOM
      1 P           4.5640   -2.2210    1.1241 P.3     1  UNL1       -0.1154
      2 C           2.9746   -2.7995    0.3759 C.3     1  UNL1       -0.0447
      3 H           3.1205   -3.0803   -0.6674 H       1  UNL1        0.0277
      4 H           2.2415   -1.9971    0.4414 H       1  UNL1        0.0277
      5 H           2.5944   -3.6587    0.9249 H       1  UNL1        0.0277
      6 C           5.1245   -1.1263   -0.2568 C.3     1  UNL1       -0.0447
      7 H           5.0046   -1.6277   -1.2175 H       1  UNL1        0.0277
      8 H           6.1725   -0.8658   -0.1211 H       1  UNL1        0.0277
      9 H           4.5349   -0.2112   -0.2448 H       1  UNL1        0.0277
     10 C           5.6012   -3.7066    0.6950 C.3     1  UNL1       -0.0447
     11 H           5.3017   -4.5513    1.3129 H       1  UNL1        0.0277
     12 H           6.6482   -3.4889    0.9002 H       1  UNL1        0.0277
     13 H           5.4919   -3.9755   -0.3550 H       1  UNL1        0.0277
@<TRIPOS>BOND
     1     7     6    1
     2     3     2    1
     3    13    10    1
     4     6     9    1
     5     6     8    1
     6     6     1    1
     7     2     4    1
     8     2     5    1
     9     2     1    1
    10    10    12    1
    11    10     1    1
    12    10    11    1
