@<TRIPOS>MOLECULE
1
 13 12 0 0 0
SMALL
GASTEIGER

@<TRIPOS>ATOM
      1 P           1.9551   11.6411    2.8609 P.3     1  UNL1       -0.1154
      2 C           0.4190   10.9793    2.0866 C.3     1  UNL1       -0.0447
      3 H           0.6047    9.9642    1.7445 H       1  UNL1        0.0277
      4 H           0.1482   11.5910    1.2293 H       1  UNL1        0.0277
      5 H          -0.4044   10.9828    2.8009 H       1  UNL1        0.0277
      6 C           1.2942   13.2763    3.4123 C.3     1  UNL1       -0.0447
      7 H           0.3997   13.1319    4.0178 H       1  UNL1        0.0277
      8 H           1.0454   13.8851    2.5458 H       1  UNL1        0.0277
      9 H           2.0445   13.8021    3.9985 H       1  UNL1        0.0277
     10 C           1.8951   10.7452    4.4697 C.3     1  UNL1       -0.0447
     11 H           0.8668   10.6377    4.8134 H       1  UNL1        0.0277
     12 H           2.4656   11.2869    5.2195 H       1  UNL1        0.0277
     13 H           2.3432    9.7641    4.3374 H       1  UNL1        0.0277
@<TRIPOS>BOND
     1     4     2    1
     2     3     2    1
     3     2     5    1
     4     2     1    1
     5     8     6    1
     6     1     6    1
     7     1    10    1
     8     6     9    1
     9     6     7    1
    10    13    10    1
    11    10    11    1
    12    10    12    1
