@<TRIPOS>MOLECULE
1
 13 12 0 0 0
SMALL
GASTEIGER

@<TRIPOS>ATOM
      1 P           1.9890    6.3855    2.8820 P.3     1  UNL1       -0.1154
      2 C           0.4667    5.6626    2.1285 C.3     1  UNL1       -0.0447
      3 H           0.7028    4.6707    1.7490 H       1  UNL1        0.0277
      4 H           0.1391    6.2864    1.2983 H       1  UNL1        0.0277
      5 H          -0.3378    5.5968    2.8616 H       1  UNL1        0.0277
      6 C           2.0297    5.4459    4.4705 C.3     1  UNL1       -0.0447
      7 H           1.0249    5.3060    4.8689 H       1  UNL1        0.0277
      8 H           2.6295    5.9823    5.2031 H       1  UNL1        0.0277
      9 H           2.4910    4.4777    4.2829 H       1  UNL1        0.0277
     10 C           1.2279    7.9580    3.5123 C.3     1  UNL1       -0.0447
     11 H           0.3530    7.7402    4.1241 H       1  UNL1        0.0277
     12 H           0.9285    8.5827    2.6724 H       1  UNL1        0.0277
     13 H           1.9519    8.5106    4.1081 H       1  UNL1        0.0277
@<TRIPOS>BOND
     1     4     2    1
     2     3     2    1
     3     2     5    1
     4     2     1    1
     5    12    10    1
     6     1    10    1
     7     1     6    1
     8    10    13    1
     9    10    11    1
    10     9     6    1
    11     6     7    1
    12     6     8    1
