@<TRIPOS>MOLECULE
1
 54 55 0 0 0
SMALL
GASTEIGER

@<TRIPOS>ATOM
      1 P           5.8294    4.2974   11.8652 P.3     1  UNL1        0.0000
      2 SI          8.0506    3.4724   15.7067 Si      1  UNL1        0.0000
      3 O           8.2751    5.0430   16.0492 O.3     1  UNL1        0.0000
      4 O           7.6460    2.5239   16.9682 O.3     1  UNL1        0.0000
      5 O           9.4895    2.9044   15.2146 O.3     1  UNL1        0.0000
      6 C           6.4794    5.3411   10.5184 C.ar    1  UNL1        0.0000
      7 C           6.0632    5.0390    9.2225 C.ar    1  UNL1        0.0000
      8 H           5.4530    4.1594    9.0576 H       1  UNL1        0.0000
      9 C           6.4179    5.8525    8.1649 C.ar    1  UNL1        0.0000
     10 H           6.0924    5.6098    7.1643 H       1  UNL1        0.0000
     11 C           7.1830    6.9868    8.3903 C.ar    1  UNL1        0.0000
     12 H           7.4575    7.6267    7.5649 H       1  UNL1        0.0000
     13 C           7.5865    7.3029    9.6761 C.ar    1  UNL1        0.0000
     14 H           8.1767    8.1907    9.8535 H       1  UNL1        0.0000
     15 C           7.2328    6.4882   10.7386 C.ar    1  UNL1        0.0000
     16 H           7.5460    6.7471   11.7402 H       1  UNL1        0.0000
     17 C           6.3226    2.6485   11.2413 C.ar    1  UNL1        0.0000
     18 C           5.4950    1.5550   11.4634 C.ar    1  UNL1        0.0000
     19 H           4.5426    1.7008   11.9559 H       1  UNL1        0.0000
     20 C           5.8818    0.2908   11.0515 C.ar    1  UNL1        0.0000
     21 H           5.2326   -0.5541   11.2274 H       1  UNL1        0.0000
     22 C           7.0967    0.1121   10.4123 C.ar    1  UNL1        0.0000
     23 H           7.3977   -0.8729   10.0878 H       1  UNL1        0.0000
     24 C           7.9256    1.1996   10.1842 C.ar    1  UNL1        0.0000
     25 H           8.8718    1.0611    9.6817 H       1  UNL1        0.0000
     26 C           7.5439    2.4614   10.5987 C.ar    1  UNL1        0.0000
     27 H           8.1887    3.3108   10.4153 H       1  UNL1        0.0000
     28 C           7.1090    4.4560   13.1873 C.3     1  UNL1        0.0000
     29 H           8.0929    4.1930   12.7880 H       1  UNL1        0.0000
     30 H           7.1366    5.4863   13.5450 H       1  UNL1        0.0000
     31 C           6.7281    3.5404   14.3453 C.3     1  UNL1        0.0000
     32 H           6.5517    2.5313   13.9643 H       1  UNL1        0.0000
     33 H           5.7786    3.8865   14.7568 H       1  UNL1        0.0000
     34 C           9.2629    5.6358   16.8645 C.3     1  UNL1        0.0000
     35 H          10.2271    5.1567   16.6716 H       1  UNL1        0.0000
     36 H           9.0026    5.4696   17.9167 H       1  UNL1        0.0000
     37 C           9.3409    7.1251   16.5638 C.3     1  UNL1        0.0000
     38 H          10.1023    7.5889   17.1849 H       1  UNL1        0.0000
     39 H           8.3838    7.6004   16.7628 H       1  UNL1        0.0000
     40 H           9.5945    7.2772   15.5181 H       1  UNL1        0.0000
     41 C           6.5341    2.5739   17.8332 C.3     1  UNL1        0.0000
     42 H           6.2724    3.6165   18.0396 H       1  UNL1        0.0000
     43 H           6.8569    2.0962   18.7648 H       1  UNL1        0.0000
     44 C           5.3294    1.8414   17.2618 C.3     1  UNL1        0.0000
     45 H           4.5326    1.8170   18.0000 H       1  UNL1        0.0000
     46 H           5.6028    0.8224   17.0010 H       1  UNL1        0.0000
     47 H           4.9654    2.3439   16.3708 H       1  UNL1        0.0000
     48 C           9.8910    1.5788   14.9601 C.3     1  UNL1        0.0000
     49 H           9.4819    0.9206   15.7318 H       1  UNL1        0.0000
     50 H          10.9838    1.5740   15.0308 H       1  UNL1        0.0000
     51 C           9.4541    1.1070   13.5804 C.3     1  UNL1        0.0000
     52 H           9.8480    0.1130   13.3877 H       1  UNL1        0.0000
     53 H           9.8239    1.7878   12.8183 H       1  UNL1        0.0000
     54 H           8.3701    1.0758   13.5170 H       1  UNL1        0.0000
@<TRIPOS>BOND
     1    10     9    1
     2    12    11    1
     3     9    11   ar
     4     9     7   ar
     5    11    13   ar
     6     8     7    1
     7     7     6   ar
     8    13    14    1
     9    13    15   ar
    10    25    24    1
    11    23    22    1
    12    24    22   ar
    13    24    26   ar
    14    22    20   ar
    15    27    26    1
    16     6    15   ar
    17     6     1    1
    18    26    17   ar
    19    15    16    1
    20    20    21    1
    21    20    18   ar
    22    17    18   ar
    23    17     1    1
    24    18    19    1
    25     1    28    1
    26    29    28    1
    27    53    51    1
    28    28    30    1
    29    28    31    1
    30    52    51    1
    31    54    51    1
    32    51    48    1
    33    32    31    1
    34    31    33    1
    35    31     2    1
    36    48    50    1
    37    48     5    1
    38    48    49    1
    39     5     2    1
    40    40    37    1
    41     2     3    1
    42     2     4    1
    43     3    34    1
    44    47    44    1
    45    37    39    1
    46    37    34    1
    47    37    38    1
    48    35    34    1
    49    34    36    1
    50     4    41    1
    51    46    44    1
    52    44    41    1
    53    44    45    1
    54    41    42    1
    55    41    43    1
