@<TRIPOS>MOLECULE
1
 13 12 0 0 0
SMALL
GASTEIGER

@<TRIPOS>ATOM
      1 P           3.8569    5.8424    9.4487 P.3     1  UNL1       -0.1154
      2 C           3.9250    5.5256    7.6250 C.3     1  UNL1       -0.0447
      3 H           3.0106    5.8944    7.1592 H       1  UNL1        0.0277
      4 H           4.0182    4.4587    7.4283 H       1  UNL1        0.0277
      5 H           4.7832    6.0463    7.2006 H       1  UNL1        0.0277
      6 C           3.1887    7.5621    9.3791 C.3     1  UNL1       -0.0447
      7 H           3.5937    8.0674    8.5021 H       1  UNL1        0.0277
      8 H           3.5063    8.1120   10.2660 H       1  UNL1        0.0277
      9 H           2.1003    7.5436    9.3196 H       1  UNL1        0.0277
     10 C           2.2961    4.9202    9.8205 C.3     1  UNL1       -0.0447
     11 H           1.9632    5.1781   10.8241 H       1  UNL1        0.0277
     12 H           2.4761    3.8479    9.7751 H       1  UNL1        0.0277
     13 H           1.5217    5.1775    9.0976 H       1  UNL1        0.0277
@<TRIPOS>BOND
     1     3     2    1
     2     5     2    1
     3     4     2    1
     4     2     1    1
     5     7     6    1
     6    13    10    1
     7     9     6    1
     8     6     1    1
     9     6     8    1
    10     1    10    1
    11    12    10    1
    12    10    11    1
