@<TRIPOS>MOLECULE
3
 73 73 0 0 0
SMALL
GASTEIGER

@<TRIPOS>ATOM
      1 P           0.5062    5.0045    8.3653 P.3     1  UNL1        0.0000
      2 P          -1.1397    6.0600    7.3739 P.3     1  UNL1        0.0000
      3 P           0.8706    5.1984    5.3094 P.3     1  UNL1        0.0000
      4 SI          0.9763    1.9976    9.0135 Si      1  UNL1        0.0000
      5 SI         -2.0098    3.1409    8.5397 Si      1  UNL1        0.0000
      6 C           1.7321    5.0292    6.9381 C.3     1  UNL1        0.0000
      7 H           2.1921    4.0325    6.9425 H       1  UNL1        0.0000
      8 C          -0.4850    6.1420    5.6785 C.3     1  UNL1        0.0000
      9 C           2.8783    6.0637    7.0718 C.3     1  UNL1        0.0000
     10 C           2.3252    7.4775    7.2125 C.3     1  UNL1        0.0000
     11 H           1.6454    7.7046    6.3917 H       1  UNL1        0.0000
     12 H           3.1346    8.2047    7.1988 H       1  UNL1        0.0000
     13 H           1.7909    7.5762    8.1544 H       1  UNL1        0.0000
     14 C           3.7735    6.0018    5.8312 C.3     1  UNL1        0.0000
     15 H           4.0986    4.9812    5.6320 H       1  UNL1        0.0000
     16 H           4.6582    6.6188    5.9767 H       1  UNL1        0.0000
     17 H           3.2415    6.3775    4.9553 H       1  UNL1        0.0000
     18 C           3.7194    5.7360    8.3055 C.3     1  UNL1        0.0000
     19 H           4.2618    4.8049    8.1640 H       1  UNL1        0.0000
     20 H           3.0833    5.6459    9.1853 H       1  UNL1        0.0000
     21 H           4.4434    6.5279    8.4865 H       1  UNL1        0.0000
     22 C          -1.3500    6.6956    4.5596 C.3     1  UNL1        0.0000
     23 C          -2.1794    5.5662    3.9370 C.3     1  UNL1        0.0000
     24 H          -2.7024    5.9259    3.0531 H       1  UNL1        0.0000
     25 H          -2.9155    5.2072    4.6518 H       1  UNL1        0.0000
     26 H          -1.5407    4.7312    3.6491 H       1  UNL1        0.0000
     27 C          -0.4474    7.3302    3.4963 C.3     1  UNL1        0.0000
     28 H           0.1448    8.1338    3.9325 H       1  UNL1        0.0000
     29 H          -1.0476    7.7460    2.6895 H       1  UNL1        0.0000
     30 H           0.2344    6.5921    3.0723 H       1  UNL1        0.0000
     31 C          -2.3152    7.7621    5.0780 C.3     1  UNL1        0.0000
     32 H          -1.7762    8.6186    5.4754 H       1  UNL1        0.0000
     33 H          -2.9486    7.3460    5.8598 H       1  UNL1        0.0000
     34 H          -2.9543    8.1077    4.2680 H       1  UNL1        0.0000
     35 C          -0.1352    3.2698    8.0820 C.3     1  UNL1        0.0000
     36 H          -0.0534    3.0760    7.0055 H       1  UNL1        0.0000
     37 C          -3.1024    3.4857    7.0060 C.3     1  UNL1        0.0000
     38 H          -2.5164    3.4320    6.0936 H       1  UNL1        0.0000
     39 H          -3.5658    4.4663    7.0459 H       1  UNL1        0.0000
     40 H          -3.8952    2.7483    6.9271 H       1  UNL1        0.0000
     41 C          -2.5652    1.4016    9.0884 C.3     1  UNL1        0.0000
     42 H          -2.0046    1.0125    9.9288 H       1  UNL1        0.0000
     43 H          -2.4872    0.6907    8.2737 H       1  UNL1        0.0000
     44 H          -3.6090    1.4414    9.3835 H       1  UNL1        0.0000
     45 C          -2.3732    4.3310    9.9890 C.3     1  UNL1        0.0000
     46 H          -2.1249    3.8755   10.9419 H       1  UNL1        0.0000
     47 H          -3.4228    4.6057   10.0197 H       1  UNL1        0.0000
     48 H          -1.7912    5.2457    9.9022 H       1  UNL1        0.0000
     49 C           2.8629    2.2475    8.8584 C.3     1  UNL1        0.0000
     50 H           3.2181    2.1972    7.8347 H       1  UNL1        0.0000
     51 H           3.3711    1.4587    9.4061 H       1  UNL1        0.0000
     52 H           3.1788    3.1915    9.2865 H       1  UNL1        0.0000
     53 C           0.6281    2.1727   10.8809 C.3     1  UNL1        0.0000
     54 H          -0.3690    1.8465   11.1514 H       1  UNL1        0.0000
     55 H           0.7275    3.2093   11.1899 H       1  UNL1        0.0000
     56 H           1.3336    1.5871   11.4613 H       1  UNL1        0.0000
     57 C           0.6448    0.2535    8.3172 C.3     1  UNL1        0.0000
     58 H           0.6543    0.2581    7.2310 H       1  UNL1        0.0000
     59 H          -0.3094   -0.1478    8.6335 H       1  UNL1        0.0000
     60 H           1.4148   -0.4374    8.6454 H       1  UNL1        0.0000
     61 C          -0.9589    7.7655    8.1483 C.3     1  UNL1        0.0000
     62 H          -0.2708    7.6587    8.9921 H       1  UNL1        0.0000
     63 H          -0.5262    8.4703    7.4375 H       1  UNL1        0.0000
     64 C          -2.2950    8.2847    8.6714 C.3     1  UNL1        0.0000
     65 H          -2.9964    8.4178    7.8457 H       1  UNL1        0.0000
     66 H          -2.7264    7.5483    9.3539 H       1  UNL1        0.0000
     67 C          -2.1295    9.6156    9.4020 C.3     1  UNL1        0.0000
     68 H          -1.4390    9.4855   10.2387 H       1  UNL1        0.0000
     69 H          -1.6890   10.3481    8.7208 H       1  UNL1        0.0000
     70 C          -3.4607   10.1441    9.9214 C.3     1  UNL1        0.0000
     71 H          -3.3220   11.0915   10.4365 H       1  UNL1        0.0000
     72 H          -3.9056    9.4363   10.6172 H       1  UNL1        0.0000
     73 H          -4.1564   10.2987    9.0994 H       1  UNL1        0.0000
@<TRIPOS>BOND
     1    29    27    1
     2    24    23    1
     3    30    27    1
     4    27    28    1
     5    27    22    1
     6    26    23    1
     7    23    22    1
     8    23    25    1
     9    34    31    1
    10    22    31    1
    11    22     8    1
    12    17    14    1
    13    31    32    1
    14    31    33    1
    15     3     8    1
    16     3     6    1
    17    15    14    1
    18     8     2    1
    19    14    16    1
    20    14     9    1
    21    38    37    1
    22    11    10    1
    23    40    37    1
    24     6     7    1
    25     6     9    1
    26     6     1    1
    27    36    35    1
    28    37    39    1
    29    37     5    1
    30     9    10    1
    31     9    18    1
    32    12    10    1
    33    10    13    1
    34    58    57    1
    35     2    61    1
    36     2     1    1
    37    63    61    1
    38    50    49    1
    39    65    64    1
    40    35     1    1
    41    35     5    1
    42    35     4    1
    43    61    64    1
    44    61    62    1
    45    19    18    1
    46    43    41    1
    47    18    21    1
    48    18    20    1
    49    57    59    1
    50    57    60    1
    51    57     4    1
    52     5    41    1
    53     5    45    1
    54    64    66    1
    55    64    67    1
    56    69    67    1
    57    49     4    1
    58    49    52    1
    59    49    51    1
    60     4    53    1
    61    41    44    1
    62    41    42    1
    63    73    70    1
    64    67    70    1
    65    67    68    1
    66    48    45    1
    67    70    71    1
    68    70    72    1
    69    45    47    1
    70    45    46    1
    71    53    54    1
    72    53    55    1
    73    53    56    1
