@<TRIPOS>MOLECULE
2
 32 31 0 0 0
SMALL
GASTEIGER

@<TRIPOS>ATOM
      1 N          -0.7631    4.9646    3.7508 N.1     1  UNL1        0.0000
      2 P           2.0356    5.2635    2.9880 P.3     1  UNL1        0.0000
      3 H           1.9289    4.1763    2.1042 H       1  UNL1        0.0000
      4 SI          2.3941    5.3126    6.0477 Si      1  UNL1        0.0000
      5 SI          3.1779    2.6565    4.1766 Si      1  UNL1        0.0000
      6 C           2.9947    4.5684    4.3639 C.3     1  UNL1        0.0000
      7 H           3.9947    4.9874    4.1988 H       1  UNL1        0.0000
      8 C           1.6334    7.0400    5.7991 C.3     1  UNL1        0.0000
      9 H           0.7516    6.9951    5.1648 H       1  UNL1        0.0000
     10 H           2.3350    7.7371    5.3483 H       1  UNL1        0.0000
     11 H           1.3226    7.4633    6.7498 H       1  UNL1        0.0000
     12 C           3.9397    5.4649    7.1506 C.3     1  UNL1        0.0000
     13 H           3.6710    5.8505    8.1282 H       1  UNL1        0.0000
     14 H           4.6698    6.1447    6.7221 H       1  UNL1        0.0000
     15 H           4.4273    4.5077    7.2991 H       1  UNL1        0.0000
     16 C           1.0817    4.1822    6.8386 C.3     1  UNL1        0.0000
     17 H           1.4729    3.1962    7.0649 H       1  UNL1        0.0000
     18 H           0.2172    4.0610    6.1935 H       1  UNL1        0.0000
     19 H           0.7332    4.6156    7.7705 H       1  UNL1        0.0000
     20 C           4.1322    1.9584    5.6673 C.3     1  UNL1        0.0000
     21 H           4.2991    0.8947    5.5366 H       1  UNL1        0.0000
     22 H           3.5935    2.0934    6.5985 H       1  UNL1        0.0000
     23 H           5.1038    2.4291    5.7748 H       1  UNL1        0.0000
     24 C           1.4691    1.8323    4.0146 C.3     1  UNL1        0.0000
     25 H           0.8266    2.3603    3.3150 H       1  UNL1        0.0000
     26 H           0.9486    1.7983    4.9659 H       1  UNL1        0.0000
     27 H           1.5668    0.8107    3.6603 H       1  UNL1        0.0000
     28 C           4.2245    2.3799    2.6027 C.3     1  UNL1        0.0000
     29 H           5.2472    2.7173    2.7485 H       1  UNL1        0.0000
     30 H           3.8279    2.9184    1.7451 H       1  UNL1        0.0000
     31 H           4.2655    1.3286    2.3347 H       1  UNL1        0.0000
     32 C           0.3481    5.0640    3.4839 C.1     1  UNL1        0.0000
@<TRIPOS>BOND
     1    30    28    1
     2     3     2    1
     3    31    28    1
     4    28    29    1
     5    28     5    1
     6     2    32    1
     7     2     6    1
     8    25    24    1
     9    32     1    3
    10    27    24    1
    11    24     5    1
    12    24    26    1
    13     5     6    1
    14     5    20    1
    15     7     6    1
    16     6     4    1
    17     9     8    1
    18    10     8    1
    19    21    20    1
    20    20    23    1
    21    20    22    1
    22     8     4    1
    23     8    11    1
    24     4    16    1
    25     4    12    1
    26    18    16    1
    27    14    12    1
    28    16    17    1
    29    16    19    1
    30    12    15    1
    31    12    13    1
