@<TRIPOS>MOLECULE
1
 13 12 0 0 0
SMALL
GASTEIGER

@<TRIPOS>ATOM
      1 P           2.9535   -0.5210    2.2082 P.3     1  UNL1       -0.1154
      2 C           2.1004   -1.9226    3.0276 C.3     1  UNL1       -0.0447
      3 H           1.0267   -1.8119    2.8793 H       1  UNL1        0.0277
      4 H           2.3087   -1.8838    4.0962 H       1  UNL1        0.0277
      5 H           2.4355   -2.8768    2.6186 H       1  UNL1        0.0277
      6 C           2.6720   -0.9571    0.4462 C.3     1  UNL1       -0.0447
      7 H           1.6091   -0.8599    0.2296 H       1  UNL1        0.0277
      8 H           3.0006   -1.9750    0.2346 H       1  UNL1        0.0277
      9 H           3.2218   -0.2504   -0.1748 H       1  UNL1        0.0277
     10 C           4.7039   -1.0482    2.3829 C.3     1  UNL1       -0.0447
     11 H           5.3232   -0.3674    1.7999 H       1  UNL1        0.0277
     12 H           4.8440   -2.0723    2.0358 H       1  UNL1        0.0277
     13 H           4.9908   -0.9708    3.4307 H       1  UNL1        0.0277
@<TRIPOS>BOND
     1     9     6    1
     2     7     6    1
     3     8     6    1
     4     6     1    1
     5    11    10    1
     6    12    10    1
     7     1    10    1
     8     1     2    1
     9    10    13    1
    10     5     2    1
    11     3     2    1
    12     2     4    1
