@<TRIPOS>MOLECULE
1
 13 12 0 0 0
SMALL
GASTEIGER

@<TRIPOS>ATOM
      1 P           1.4212    3.0339    3.9560 P.3     1  UNL1       -0.1154
      2 C           0.1395    2.5189    5.1625 C.3     1  UNL1       -0.0447
      3 H           0.5992    1.8615    5.8998 H       1  UNL1        0.0277
      4 H          -0.6339    1.9614    4.6353 H       1  UNL1        0.0277
      5 H          -0.3002    3.3846    5.6596 H       1  UNL1        0.0277
      6 C           2.4368    4.1410    5.0128 C.3     1  UNL1       -0.0447
      7 H           2.9402    3.5366    5.7660 H       1  UNL1        0.0277
      8 H           1.8199    4.8982    5.4976 H       1  UNL1        0.0277
      9 H           3.1899    4.6177    4.3860 H       1  UNL1        0.0277
     10 C           0.4880    4.2912    2.9961 C.3     1  UNL1       -0.0447
     11 H          -0.2786    3.7871    2.4093 H       1  UNL1        0.0277
     12 H           1.1822    4.7832    2.3156 H       1  UNL1        0.0277
     13 H           0.0248    5.0265    3.6547 H       1  UNL1        0.0277
@<TRIPOS>BOND
     1    12    10    1
     2    11    10    1
     3    10    13    1
     4    10     1    1
     5     1     6    1
     6     1     2    1
     7     9     6    1
     8     4     2    1
     9     6     8    1
    10     6     7    1
    11     2     5    1
    12     2     3    1
