@<TRIPOS>MOLECULE
1
 13 12 0 0 0
SMALL
GASTEIGER

@<TRIPOS>ATOM
      1 P           2.6175   -0.8866   -6.6762 P.3     1  UNL1       -0.1154
      2 C           3.1515   -0.9871   -8.4282 C.3     1  UNL1       -0.0447
      3 H           2.7784   -1.9148   -8.8590 H       1  UNL1        0.0277
      4 H           4.2385   -0.9548   -8.5049 H       1  UNL1        0.0277
      5 H           2.7149   -0.1493   -8.9707 H       1  UNL1        0.0277
      6 C           3.6253   -2.2298   -5.9401 C.3     1  UNL1       -0.0447
      7 H           3.2520   -3.1893   -6.2967 H       1  UNL1        0.0277
      8 H           3.5189   -2.1993   -4.8562 H       1  UNL1        0.0277
      9 H           4.6758   -2.1182   -6.2116 H       1  UNL1        0.0277
     10 C           3.5749    0.5833   -6.1398 C.3     1  UNL1       -0.0447
     11 H           3.1490    1.4654   -6.6166 H       1  UNL1        0.0277
     12 H           4.6256    0.4827   -6.4128 H       1  UNL1        0.0277
     13 H           3.4828    0.6911   -5.0603 H       1  UNL1        0.0277
@<TRIPOS>BOND
     1     5     2    1
     2     3     2    1
     3     4     2    1
     4     2     1    1
     5     1    10    1
     6     1     6    1
     7    11    10    1
     8    12    10    1
     9     7     6    1
    10     9     6    1
    11    10    13    1
    12     6     8    1
