@<TRIPOS>MOLECULE
5
 84 86 0 0 0
SMALL
GASTEIGER

@<TRIPOS>ATOM
      1 SI          4.5717    9.9226   19.2025 Si      1  UNL1        0.0000
      2 SI          2.6867    7.2128   18.8327 Si      1  UNL1        0.0000
      3 SI          3.5216    9.1550   26.0551 Si      1  UNL1        0.0000
      4 SI          5.0011    6.2500   26.8894 Si      1  UNL1        0.0000
      5 P           4.8092    7.3856   20.9402 P.3     1  UNL1        0.0000
      6 P           4.9508    7.1285   23.9138 P.3     1  UNL1        0.0000
      7 N           3.3501    7.3575   21.7443 N.2     1  UNL1        0.0000
      8 N           5.5593    8.6452   21.7461 N.2     1  UNL1        0.0000
      9 C           4.3691    8.0199   19.3129 C.3     1  UNL1        0.0000
     10 H           5.1234    7.5902   18.6452 H       1  UNL1        0.0000
     11 C           6.4068   10.4239   19.3682 C.3     1  UNL1        0.0000
     12 H           6.7824   10.2592   20.3723 H       1  UNL1        0.0000
     13 H           6.5460   11.4732   19.1233 H       1  UNL1        0.0000
     14 H           7.0278    9.8457   18.6895 H       1  UNL1        0.0000
     15 C           4.0250   10.4835   17.4609 C.3     1  UNL1        0.0000
     16 H           2.9911   10.2371   17.2488 H       1  UNL1        0.0000
     17 H           4.6373   10.0286   16.6898 H       1  UNL1        0.0000
     18 H           4.1327   11.5585   17.3678 H       1  UNL1        0.0000
     19 C           3.4750   10.7979   20.4977 C.3     1  UNL1        0.0000
     20 H           2.4939   11.0333   20.0993 H       1  UNL1        0.0000
     21 H           3.9244   11.7300   20.8265 H       1  UNL1        0.0000
     22 H           3.3348   10.1655   21.3684 H       1  UNL1        0.0000
     23 C           2.7832    6.8984   16.9513 C.3     1  UNL1        0.0000
     24 H           3.5132    6.1322   16.7099 H       1  UNL1        0.0000
     25 H           3.0538    7.7947   16.4042 H       1  UNL1        0.0000
     26 H           1.8222    6.5626   16.5773 H       1  UNL1        0.0000
     27 C           1.2329    8.3905   19.2082 C.3     1  UNL1        0.0000
     28 H           1.2180    8.6763   20.2533 H       1  UNL1        0.0000
     29 H           0.2914    7.8992   18.9849 H       1  UNL1        0.0000
     30 H           1.2794    9.2956   18.6134 H       1  UNL1        0.0000
     31 C           2.2867    5.5488   19.6856 C.3     1  UNL1        0.0000
     32 H           3.1501    5.1430   20.2068 H       1  UNL1        0.0000
     33 H           1.9590    4.8056   18.9641 H       1  UNL1        0.0000
     34 H           1.4978    5.6699   20.4219 H       1  UNL1        0.0000
     35 C           3.3602    7.2314   23.0188 C.2     1  UNL1        0.0000
     36 C           2.0935    6.9897   23.7072 C.ar    1  UNL1        0.0000
     37 C           2.0171    5.9521   24.6281 C.ar    1  UNL1        0.0000
     38 H           2.9109    5.3928   24.8609 H       1  UNL1        0.0000
     39 C           0.8009    5.6122   25.1916 C.ar    1  UNL1        0.0000
     40 H           0.7421    4.7913   25.8905 H       1  UNL1        0.0000
     41 C          -0.3420    6.3192   24.8554 C.ar    1  UNL1        0.0000
     42 H          -1.2899    6.0584   25.3021 H       1  UNL1        0.0000
     43 C          -0.2704    7.3532   23.9345 C.ar    1  UNL1        0.0000
     44 H          -1.1634    7.8964   23.6626 H       1  UNL1        0.0000
     45 C           0.9375    7.6791   23.3494 C.ar    1  UNL1        0.0000
     46 H           0.9982    8.4639   22.6114 H       1  UNL1        0.0000
     47 C           5.6497    8.5729   23.0191 C.2     1  UNL1        0.0000
     48 C           6.3790    9.6261   23.7350 C.ar    1  UNL1        0.0000
     49 C           7.4137    9.3025   24.6099 C.ar    1  UNL1        0.0000
     50 H           7.6951    8.2685   24.7510 H       1  UNL1        0.0000
     51 C           8.1180   10.3035   25.2536 C.ar    1  UNL1        0.0000
     52 H           8.9222   10.0440   25.9260 H       1  UNL1        0.0000
     53 C           7.7977   11.6332   25.0339 C.ar    1  UNL1        0.0000
     54 H           8.3427   12.4121   25.5459 H       1  UNL1        0.0000
     55 C           6.7892   11.9606   24.1421 C.ar    1  UNL1        0.0000
     56 H           6.5520   12.9967   23.9514 H       1  UNL1        0.0000
     57 C           6.0881   10.9648   23.4882 C.ar    1  UNL1        0.0000
     58 H           5.3129   11.2111   22.7805 H       1  UNL1        0.0000
     59 C           4.7584    7.7240   25.6511 C.3     1  UNL1        0.0000
     60 H           5.7257    8.2275   25.7679 H       1  UNL1        0.0000
     61 C           4.5365   10.3729   27.1226 C.3     1  UNL1        0.0000
     62 H           3.9229   11.2081   27.4457 H       1  UNL1        0.0000
     63 H           5.3797   10.7805   26.5723 H       1  UNL1        0.0000
     64 H           4.9281    9.8939   28.0135 H       1  UNL1        0.0000
     65 C           2.0090    8.6067   27.0740 C.3     1  UNL1        0.0000
     66 H           1.3904    7.8853   26.5520 H       1  UNL1        0.0000
     67 H           1.3885    9.4713   27.2889 H       1  UNL1        0.0000
     68 H           2.3053    8.1770   28.0246 H       1  UNL1        0.0000
     69 C           2.9182   10.1187   24.5229 C.3     1  UNL1        0.0000
     70 H           3.2958    9.6862   23.6017 H       1  UNL1        0.0000
     71 H           3.2528   11.1507   24.5569 H       1  UNL1        0.0000
     72 H           1.8348   10.1226   24.4613 H       1  UNL1        0.0000
     73 C           3.4661    5.3155   27.5320 C.3     1  UNL1        0.0000
     74 H           3.3061    4.3898   26.9894 H       1  UNL1        0.0000
     75 H           2.5565    5.8990   27.4705 H       1  UNL1        0.0000
     76 H           3.6188    5.0530   28.5742 H       1  UNL1        0.0000
     77 C           5.8802    6.9983   28.4104 C.3     1  UNL1        0.0000
     78 H           6.7336    7.6078   28.1305 H       1  UNL1        0.0000
     79 H           6.2407    6.2154   29.0699 H       1  UNL1        0.0000
     80 H           5.2049    7.6220   28.9874 H       1  UNL1        0.0000
     81 C           6.1565    4.9939   26.0408 C.3     1  UNL1        0.0000
     82 H           7.0844    5.4586   25.7208 H       1  UNL1        0.0000
     83 H           5.6920    4.5601   25.1578 H       1  UNL1        0.0000
     84 H           6.4149    4.1760   26.7069 H       1  UNL1        0.0000
@<TRIPOS>BOND
     1    25    23    1
     2    26    23    1
     3    17    15    1
     4    24    23    1
     5    23     2    1
     6    16    15    1
     7    18    15    1
     8    15     1    1
     9    30    27    1
    10    10     9    1
    11    14    11    1
    12     2    27    1
    13     2     9    1
    14     2    31    1
    15    33    31    1
    16    29    27    1
    17    13    11    1
    18     1     9    1
    19     1    11    1
    20     1    19    1
    21    27    28    1
    22     9     5    1
    23    11    12    1
    24    31    32    1
    25    31    34    1
    26    20    19    1
    27    19    21    1
    28    19    22    1
    29     5     7    1
    30     5     8    1
    31     7    35    2
    32     8    47    2
    33    46    45    1
    34    58    57    1
    35    35    36    1
    36    35     6    1
    37    47    48    1
    38    47     6    1
    39    45    36   ar
    40    45    43   ar
    41    57    48   ar
    42    57    55   ar
    43    70    69    1
    44    44    43    1
    45    36    37   ar
    46    48    49   ar
    47     6    59    1
    48    43    41   ar
    49    56    55    1
    50    55    53   ar
    51    72    69    1
    52    69    71    1
    53    69     3    1
    54    49    50    1
    55    49    51   ar
    56    37    38    1
    57    37    39   ar
    58    41    39   ar
    59    41    42    1
    60    53    51   ar
    61    53    54    1
    62    83    81    1
    63    39    40    1
    64    51    52    1
    65    59    60    1
    66    59     3    1
    67    59     4    1
    68    82    81    1
    69    81    84    1
    70    81     4    1
    71     3    65    1
    72     3    61    1
    73    66    65    1
    74    63    61    1
    75     4    73    1
    76     4    77    1
    77    74    73    1
    78    65    67    1
    79    65    68    1
    80    61    62    1
    81    61    64    1
    82    75    73    1
    83    73    76    1
    84    78    77    1
    85    77    80    1
    86    77    79    1
