@<TRIPOS>MOLECULE
2
 49 50 0 0 0
SMALL
GASTEIGER

@<TRIPOS>ATOM
      1 S           2.4415    2.6688    0.7891 S.2     1  UNL1        0.0000
      2 P           2.5574   -1.2465    3.1172 P.3     1  UNL1        0.0000
      3 SI          0.4584    1.3338    4.3529 Si      1  UNL1        0.0000
      4 SI          3.4550    6.2613   -3.3299 Si      1  UNL1        0.0000
      5 C           1.7544    0.3696    3.3886 C.2     1  UNL1        0.0000
      6 C           2.4958    0.3542    2.2756 C.2     1  UNL1        0.0000
      7 C           2.9171    1.0225    1.1197 C.ar    1  UNL1        0.0000
      8 C           3.7062    0.5178    0.1094 C.ar    1  UNL1        0.0000
      9 H           4.0949   -0.4864    0.1345 H       1  UNL1        0.0000
     10 C           3.9317    1.4298   -0.9230 C.ar    1  UNL1        0.0000
     11 H           4.5190    1.2230   -1.7996 H       1  UNL1        0.0000
     12 C           3.3205    2.6453   -0.7123 C.ar    1  UNL1        0.0000
     13 C           3.3574    3.7698   -1.5368 C.1     1  UNL1        0.0000
     14 C           3.3876    4.7558   -2.2407 C.1     1  UNL1        0.0000
     15 C           4.0832   -1.2260    4.1050 C.ar    1  UNL1        0.0000
     16 C           4.5060   -0.0955    4.7968 C.ar    1  UNL1        0.0000
     17 H           3.9121    0.8076    4.7510 H       1  UNL1        0.0000
     18 C           5.6722   -0.1369    5.5362 C.ar    1  UNL1        0.0000
     19 H           5.9996    0.7409    6.0743 H       1  UNL1        0.0000
     20 C           6.4214   -1.3026    5.5915 C.ar    1  UNL1        0.0000
     21 H           7.3322   -1.3304    6.1709 H       1  UNL1        0.0000
     22 C           6.0015   -2.4316    4.9074 C.ar    1  UNL1        0.0000
     23 H           6.5839   -3.3400    4.9525 H       1  UNL1        0.0000
     24 C           4.8338   -2.3956    4.1673 C.ar    1  UNL1        0.0000
     25 H           4.4945   -3.2744    3.6307 H       1  UNL1        0.0000
     26 C           0.2082    0.4105    5.9959 C.3     1  UNL1        0.0000
     27 H           1.1350    0.3422    6.5592 H       1  UNL1        0.0000
     28 H          -0.1406   -0.6030    5.8192 H       1  UNL1        0.0000
     29 H          -0.5249    0.9055    6.6254 H       1  UNL1        0.0000
     30 C           1.1476    3.0926    4.6056 C.3     1  UNL1        0.0000
     31 H           0.4157    3.7264    5.0964 H       1  UNL1        0.0000
     32 H           1.4010    3.5556    3.6565 H       1  UNL1        0.0000
     33 H           2.0423    3.0898    5.2212 H       1  UNL1        0.0000
     34 C          -1.1127    1.3500    3.2772 C.3     1  UNL1        0.0000
     35 H          -1.4904    0.3440    3.1206 H       1  UNL1        0.0000
     36 H          -0.9168    1.7842    2.3009 H       1  UNL1        0.0000
     37 H          -1.9028    1.9297    3.7450 H       1  UNL1        0.0000
     38 C           5.1313    6.2546   -4.2362 C.3     1  UNL1        0.0000
     39 H           5.9589    6.2737   -3.5334 H       1  UNL1        0.0000
     40 H           5.2323    7.1185   -4.8869 H       1  UNL1        0.0000
     41 H           5.2435    5.3659   -4.8501 H       1  UNL1        0.0000
     42 C           3.2920    7.7923   -2.2069 C.3     1  UNL1        0.0000
     43 H           2.3547    7.7799   -1.6587 H       1  UNL1        0.0000
     44 H           3.3237    8.7119   -2.7841 H       1  UNL1        0.0000
     45 H           4.0965    7.8330   -1.4786 H       1  UNL1        0.0000
     46 C           2.0109    6.1647   -4.5693 C.3     1  UNL1        0.0000
     47 H           2.0784    5.2717   -5.1834 H       1  UNL1        0.0000
     48 H           2.0045    7.0228   -5.2356 H       1  UNL1        0.0000
     49 H           1.0536    6.1384   -4.0573 H       1  UNL1        0.0000
@<TRIPOS>BOND
     1    48    46    1
     2    47    46    1
     3    40    38    1
     4    41    38    1
     5    46    49    1
     6    46     4    1
     7    38    39    1
     8    38     4    1
     9     4    14    1
    10     4    42    1
    11    44    42    1
    12    14    13    3
    13    42    43    1
    14    42    45    1
    15    11    10    1
    16    13    12    1
    17    10    12   ar
    18    10     8   ar
    19    12     1   ar
    20     8     9    1
    21     8     7   ar
    22     1     7   ar
    23     7     6    1
    24     6     2    1
    25     6     5    2
    26    36    34    1
    27     2    15    1
    28    35    34    1
    29    34    37    1
    30    34     3    1
    31     5     3    1
    32    25    24    1
    33    32    30    1
    34    15    24   ar
    35    15    16   ar
    36    24    22   ar
    37     3    30    1
    38     3    26    1
    39    30    31    1
    40    30    33    1
    41    17    16    1
    42    16    18   ar
    43    22    23    1
    44    22    20   ar
    45    18    20   ar
    46    18    19    1
    47    20    21    1
    48    28    26    1
    49    26    27    1
    50    26    29    1
