@<TRIPOS>MOLECULE
1
 52 54 0 0 0
SMALL
GASTEIGER

@<TRIPOS>ATOM
      1 P           2.1913   10.0093    7.5670 P.3     1  UNL1       -0.0964
      2 C           0.7253    9.0018    8.1583 C.3     1  UNL1       -0.0200
      3 H          -0.0613    9.6741    8.5226 H       1  UNL1        0.0349
      4 C           2.6342   10.9648    9.1236 C.3     1  UNL1       -0.0200
      5 H           3.1605   10.1911    9.7038 H       1  UNL1        0.0349
      6 C           1.3485   11.1807    6.3644 C.3     1  UNL1       -0.0200
      7 H           0.8679   10.4821    5.6640 H       1  UNL1        0.0349
      8 C           3.6597   12.0554    8.8154 C.3     1  UNL1       -0.0463
      9 H           4.4303   11.6609    8.1471 H       1  UNL1        0.0271
     10 H           3.1700   12.8957    8.3190 H       1  UNL1        0.0271
     11 C           0.1692    8.1670    7.0035 C.3     1  UNL1       -0.0463
     12 H          -0.2210    8.8159    6.2169 H       1  UNL1        0.0271
     13 H           0.9801    7.5690    6.5762 H       1  UNL1        0.0271
     14 C          -0.9514    7.2411    7.4714 C.3     1  UNL1       -0.0525
     15 H          -1.7900    7.8393    7.8390 H       1  UNL1        0.0265
     16 H          -1.3096    6.6484    6.6271 H       1  UNL1        0.0265
     17 C           0.2755   12.1240    6.9057 C.3     1  UNL1       -0.0463
     18 H           0.7414   12.9036    7.5100 H       1  UNL1        0.0271
     19 H          -0.4437   11.5884    7.5277 H       1  UNL1        0.0271
     20 C           1.5359   11.5442   10.0175 C.3     1  UNL1       -0.0463
     21 H           1.0466   12.3861    9.5290 H       1  UNL1        0.0271
     22 H           0.7737   10.7990   10.2467 H       1  UNL1        0.0271
     23 C           0.0445    7.1631    9.7516 C.3     1  UNL1       -0.0525
     24 H           0.4031    6.5145   10.5534 H       1  UNL1        0.0265
     25 H          -0.7788    7.7630   10.1501 H       1  UNL1        0.0265
     26 C           1.1749    8.0826    9.2957 C.3     1  UNL1       -0.0463
     27 H           2.0136    7.4738    8.9465 H       1  UNL1        0.0271
     28 H           1.5223    8.6682   10.1486 H       1  UNL1        0.0271
     29 C          -0.4596    6.3240    8.5842 C.3     1  UNL1       -0.0530
     30 H          -1.2660    5.6654    8.9132 H       1  UNL1        0.0265
     31 H           0.3545    5.7016    8.2081 H       1  UNL1        0.0265
     32 C           0.5272   13.5736    4.8740 C.3     1  UNL1       -0.0530
     33 H           0.9615   14.3841    5.4645 H       1  UNL1        0.0265
     34 H           0.0018   14.0227    4.0287 H       1  UNL1        0.0265
     35 C           2.3548   11.9848    5.5404 C.3     1  UNL1       -0.0463
     36 H           3.1364   11.3230    5.1593 H       1  UNL1        0.0271
     37 H           2.8322   12.7474    6.1573 H       1  UNL1        0.0271
     38 C          -0.4550   12.7901    5.7397 C.3     1  UNL1       -0.0525
     39 H          -0.9456   12.0256    5.1326 H       1  UNL1        0.0265
     40 H          -1.2290   13.4590    6.1232 H       1  UNL1        0.0265
     41 C           1.6428   12.6619    4.3707 C.3     1  UNL1       -0.0525
     42 H           2.3610   13.2412    3.7871 H       1  UNL1        0.0265
     43 H           1.2203   11.8974    3.7145 H       1  UNL1        0.0265
     44 C           3.2240   13.0962   11.0513 C.3     1  UNL1       -0.0530
     45 H           2.7511   13.9698   10.5956 H       1  UNL1        0.0265
     46 H           3.6783   13.4167   11.9910 H       1  UNL1        0.0265
     47 C           4.2963   12.5537   10.1104 C.3     1  UNL1       -0.0525
     48 H           4.8239   11.7286   10.5940 H       1  UNL1        0.0265
     49 H           5.0275   13.3341    9.8897 H       1  UNL1        0.0265
     50 C           2.1631   12.0338   11.3241 C.3     1  UNL1       -0.0525
     51 H           1.3860   12.4436   11.9734 H       1  UNL1        0.0265
     52 H           2.6223   11.1900   11.8447 H       1  UNL1        0.0265
@<TRIPOS>BOND
     1    43    41    1
     2    42    41    1
     3    34    32    1
     4    41    32    1
     5    41    35    1
     6    32    33    1
     7    32    38    1
     8    39    38    1
     9    36    35    1
    10    35    37    1
    11    35     6    1
    12     7     6    1
    13    38    40    1
    14    38    17    1
    15    12    11    1
    16     6    17    1
    17     6     1    1
    18    13    11    1
    19    16    14    1
    20    17    18    1
    21    17    19    1
    22    11    14    1
    23    11     2    1
    24    14    15    1
    25    14    29    1
    26     1     2    1
    27     1     4    1
    28     9     8    1
    29     2     3    1
    30     2    26    1
    31    31    29    1
    32    10     8    1
    33    29    30    1
    34    29    23    1
    35     8     4    1
    36     8    47    1
    37    27    26    1
    38     4     5    1
    39     4    20    1
    40    26    23    1
    41    26    28    1
    42    21    20    1
    43    23    25    1
    44    23    24    1
    45    49    47    1
    46    20    22    1
    47    20    50    1
    48    47    48    1
    49    47    44    1
    50    45    44    1
    51    44    50    1
    52    44    46    1
    53    50    52    1
    54    50    51    1
