@<TRIPOS>MOLECULE
1
 34 36 0 0 0
SMALL
GASTEIGER

@<TRIPOS>ATOM
      1 P           6.8647    1.3763   10.0666 P.3     1  UNL1       -0.0131
      2 C           5.4092    0.4050    9.5577 C.ar    1  UNL1       -0.0147
      3 C           5.6858   -0.8806    9.0925 C.ar    1  UNL1       -0.0535
      4 H           6.7193   -1.2032    9.0334 H       1  UNL1        0.0624
      5 C           4.6555   -1.7224    8.7240 C.ar    1  UNL1       -0.0611
      6 H           4.8722   -2.7165    8.3606 H       1  UNL1        0.0618
      7 C           3.3404   -1.2916    8.8277 C.ar    1  UNL1       -0.0617
      8 H           2.5326   -1.9504    8.5441 H       1  UNL1        0.0618
      9 C           3.0627   -0.0190    9.2961 C.ar    1  UNL1       -0.0611
     10 H           2.0380    0.3150    9.3768 H       1  UNL1        0.0618
     11 C           4.0928    0.8327    9.6613 C.ar    1  UNL1       -0.0535
     12 H           3.8724    1.8286   10.0203 H       1  UNL1        0.0624
     13 C           7.7410    1.4784    8.4691 C.ar    1  UNL1       -0.0147
     14 C           9.1197    1.6444    8.4690 C.ar    1  UNL1       -0.0535
     15 H           9.6460    1.6460    9.4119 H       1  UNL1        0.0624
     16 C           9.8053    1.7719    7.2744 C.ar    1  UNL1       -0.0611
     17 H          10.8781    1.8937    7.2833 H       1  UNL1        0.0618
     18 C           9.1183    1.7347    6.0731 C.ar    1  UNL1       -0.0617
     19 H           9.6526    1.8281    5.1388 H       1  UNL1        0.0618
     20 C           7.7417    1.5716    6.0677 C.ar    1  UNL1       -0.0611
     21 H           7.2039    1.5412    5.1308 H       1  UNL1        0.0618
     22 C           7.0511    1.4457    7.2587 C.ar    1  UNL1       -0.0535
     23 H           5.9765    1.3217    7.2507 H       1  UNL1        0.0624
     24 C           6.1907    3.0707   10.2021 C.ar    1  UNL1       -0.0147
     25 C           5.5247    3.3917   11.3821 C.ar    1  UNL1       -0.0535
     26 H           5.4388    2.6343   12.1505 H       1  UNL1        0.0624
     27 C           4.9928    4.6525   11.5746 C.ar    1  UNL1       -0.0611
     28 H           4.4747    4.8897   12.4933 H       1  UNL1        0.0618
     29 C           5.1327    5.6159   10.5875 C.ar    1  UNL1       -0.0617
     30 H           4.7244    6.6048   10.7357 H       1  UNL1        0.0618
     31 C           5.8022    5.3076    9.4155 C.ar    1  UNL1       -0.0611
     32 H           5.9164    6.0583    8.6470 H       1  UNL1        0.0618
     33 C           6.3300    4.0427    9.2190 C.ar    1  UNL1       -0.0535
     34 H           6.8566    3.8165    8.3040 H       1  UNL1        0.0624
@<TRIPOS>BOND
     1    21    20    1
     2    19    18    1
     3    20    18   ar
     4    20    22   ar
     5    18    16   ar
     6    23    22    1
     7    22    13   ar
     8    16    17    1
     9    16    14   ar
    10    34    33    1
    11     6     5    1
    12    14    13   ar
    13    14    15    1
    14    13     1    1
    15     8     7    1
    16    32    31    1
    17     5     7   ar
    18     5     3   ar
    19     7     9   ar
    20     4     3    1
    21     3     2   ar
    22    33    31   ar
    23    33    24   ar
    24     9    10    1
    25     9    11   ar
    26    31    29   ar
    27     2    11   ar
    28     2     1    1
    29    11    12    1
    30     1    24    1
    31    24    25   ar
    32    29    30    1
    33    29    27   ar
    34    25    27   ar
    35    25    26    1
    36    27    28    1
