@<TRIPOS>MOLECULE
1
 34 36 0 0 0
SMALL
GASTEIGER

@<TRIPOS>ATOM
      1 P           5.2815    3.7233    7.3680 P.3     1  UNL1       -0.0131
      2 C           7.0119    3.2030    7.1143 C.ar    1  UNL1       -0.0147
      3 C           7.4619    1.9580    7.5442 C.ar    1  UNL1       -0.0535
      4 C           8.7620    1.5616    7.2892 C.ar    1  UNL1       -0.0611
      5 C           9.6291    2.4024    6.6101 C.ar    1  UNL1       -0.0617
      6 C           9.1825    3.6362    6.1640 C.ar    1  UNL1       -0.0611
      7 C           7.8768    4.0264    6.3984 C.ar    1  UNL1       -0.0535
      8 C           4.9574    2.8827    8.9686 C.ar    1  UNL1       -0.0147
      9 C           3.8809    2.0181    9.1091 C.ar    1  UNL1       -0.0535
     10 C           3.6482    1.3765   10.3133 C.ar    1  UNL1       -0.0611
     11 C           4.4895    1.5965   11.3896 C.ar    1  UNL1       -0.0617
     12 C           5.5642    2.4624   11.2584 C.ar    1  UNL1       -0.0611
     13 C           5.7983    3.1023   10.0569 C.ar    1  UNL1       -0.0535
     14 C           5.4817    5.4301    8.0106 C.ar    1  UNL1       -0.0147
     15 C           6.6733    5.9722    8.4803 C.ar    1  UNL1       -0.0535
     16 C           6.7063    7.2733    8.9506 C.ar    1  UNL1       -0.0611
     17 C           5.5576    8.0464    8.9619 C.ar    1  UNL1       -0.0617
     18 C           4.3635    7.5085    8.5101 C.ar    1  UNL1       -0.0611
     19 C           4.3284    6.2089    8.0417 C.ar    1  UNL1       -0.0535
     20 H           6.7948    1.2994    8.0817 H       1  UNL1        0.0624
     21 H           9.0993    0.5920    7.6254 H       1  UNL1        0.0618
     22 H          10.6471    2.0938    6.4226 H       1  UNL1        0.0618
     23 H           9.8452    4.2950    5.6216 H       1  UNL1        0.0618
     24 H           7.5241    4.9773    6.0279 H       1  UNL1        0.0624
     25 H           3.2198    1.8520    8.2702 H       1  UNL1        0.0624
     26 H           2.8070    0.7061   10.4102 H       1  UNL1        0.0618
     27 H           4.3096    1.0975   12.3304 H       1  UNL1        0.0618
     28 H           6.2216    2.6389   12.0975 H       1  UNL1        0.0618
     29 H           6.6391    3.7745    9.9616 H       1  UNL1        0.0624
     30 H           7.5851    5.3916    8.4713 H       1  UNL1        0.0624
     31 H           7.6388    7.6860    9.3087 H       1  UNL1        0.0618
     32 H           5.5934    9.0644    9.3214 H       1  UNL1        0.0618
     33 H           3.4616    8.1030    8.5140 H       1  UNL1        0.0618
     34 H           3.3991    5.7858    7.6848 H       1  UNL1        0.0624
@<TRIPOS>BOND
     1    23     6    1
     2    24     7    1
     3     6     7   ar
     4     6     5   ar
     5     7     2   ar
     6    22     5    1
     7     5     4   ar
     8     2     1    1
     9     2     3   ar
    10     4     3   ar
    11     4    21    1
    12     1    14    1
    13     1     8    1
    14     3    20    1
    15    34    19    1
    16    14    19   ar
    17    14    15   ar
    18    19    18   ar
    19    25     9    1
    20    30    15    1
    21    15    16   ar
    22    18    33    1
    23    18    17   ar
    24    16    17   ar
    25    16    31    1
    26    17    32    1
    27     8     9   ar
    28     8    13   ar
    29     9    10   ar
    30    29    13    1
    31    13    12   ar
    32    10    26    1
    33    10    11   ar
    34    12    11   ar
    35    12    28    1
    36    11    27    1
