@<TRIPOS>MOLECULE
1
 34 36 0 0 0
SMALL
GASTEIGER

@<TRIPOS>ATOM
      1 P           0.9236    1.7518   16.5142 P.3     1  UNL1       -0.0131
      2 C           0.0538    3.2971   16.0684 C.ar    1  UNL1       -0.0147
      3 C          -0.5604    4.1312   16.9940 C.ar    1  UNL1       -0.0535
      4 H          -0.5403    3.8857   18.0455 H       1  UNL1        0.0624
      5 C          -1.1963    5.2861   16.5708 C.ar    1  UNL1       -0.0611
      6 H          -1.6731    5.9305   17.2955 H       1  UNL1        0.0618
      7 C          -1.2254    5.6166   15.2266 C.ar    1  UNL1       -0.0617
      8 H          -1.7267    6.5169   14.9028 H       1  UNL1        0.0618
      9 C          -0.5997    4.7961   14.3017 C.ar    1  UNL1       -0.0611
     10 H          -0.6098    5.0557   13.2534 H       1  UNL1        0.0618
     11 C           0.0442    3.6473   14.7196 C.ar    1  UNL1       -0.0535
     12 H           0.5653    3.0196   14.0084 H       1  UNL1        0.0624
     13 C          -0.2871    0.4683   16.0311 C.ar    1  UNL1       -0.0147
     14 C          -0.1229   -0.7985   16.5911 C.ar    1  UNL1       -0.0535
     15 H           0.6716   -0.9686   17.3057 H       1  UNL1        0.0624
     16 C          -0.9812   -1.8274   16.2580 C.ar    1  UNL1       -0.0611
     17 H          -0.8467   -2.8049   16.6989 H       1  UNL1        0.0618
     18 C          -2.0193   -1.6045   15.3668 C.ar    1  UNL1       -0.0617
     19 H          -2.6937   -2.4075   15.1080 H       1  UNL1        0.0618
     20 C          -2.1914   -0.3474   14.8132 C.ar    1  UNL1       -0.0611
     21 H          -3.0045   -0.1676   14.1243 H       1  UNL1        0.0618
     22 C          -1.3261    0.6852   15.1355 C.ar    1  UNL1       -0.0535
     23 H          -1.4665    1.6616   14.6953 H       1  UNL1        0.0624
     24 C           0.6599    1.6989   18.3291 C.ar    1  UNL1       -0.0147
     25 C           1.7150    1.9935   19.1834 C.ar    1  UNL1       -0.0535
     26 H           2.6721    2.2531   18.7528 H       1  UNL1        0.0624
     27 C           1.5411    1.9477   20.5550 C.ar    1  UNL1       -0.0611
     28 H           2.3689    2.1734   21.2116 H       1  UNL1        0.0618
     29 C           0.3089    1.6070   21.0869 C.ar    1  UNL1       -0.0617
     30 H           0.1724    1.5624   22.1575 H       1  UNL1        0.0618
     31 C          -0.7521    1.3251   20.2414 C.ar    1  UNL1       -0.0611
     32 H          -1.7173    1.0669   20.6528 H       1  UNL1        0.0618
     33 C          -0.5815    1.3721   18.8700 C.ar    1  UNL1       -0.0535
     34 H          -1.4157    1.1556   18.2167 H       1  UNL1        0.0624
@<TRIPOS>BOND
     1    10     9    1
     2    12    11    1
     3    21    20    1
     4     9    11   ar
     5     9     7   ar
     6    23    22    1
     7    11     2   ar
     8    20    22   ar
     9    20    18   ar
    10     8     7    1
    11    19    18    1
    12    22    13   ar
    13     7     5   ar
    14    18    16   ar
    15    13     1    1
    16    13    14   ar
    17     2     1    1
    18     2     3   ar
    19    16    14   ar
    20    16    17    1
    21     1    24    1
    22     5     3   ar
    23     5     6    1
    24    14    15    1
    25     3     4    1
    26    34    33    1
    27    24    33   ar
    28    24    25   ar
    29    26    25    1
    30    33    31   ar
    31    25    27   ar
    32    31    32    1
    33    31    29   ar
    34    27    29   ar
    35    27    28    1
    36    29    30    1
