@<TRIPOS>MOLECULE
1
 34 36 0 0 0
SMALL
GASTEIGER

@<TRIPOS>ATOM
      1 P           5.4602    1.2082   15.5453 P.3     1  UNL1       -0.0131
      2 C           6.5304    2.5379   14.8825 C.ar    1  UNL1       -0.0147
      3 C           5.9534    3.6435   14.2716 C.ar    1  UNL1       -0.0535
      4 H           4.8766    3.7101   14.2180 H       1  UNL1        0.0624
      5 C           6.7573    4.6325   13.7305 C.ar    1  UNL1       -0.0611
      6 H           6.3048    5.4845   13.2453 H       1  UNL1        0.0618
      7 C           8.1359    4.5302   13.8069 C.ar    1  UNL1       -0.0617
      8 H           8.7628    5.3024   13.3854 H       1  UNL1        0.0618
      9 C           8.7139    3.4331   14.4272 C.ar    1  UNL1       -0.0611
     10 H           9.7895    3.3528   14.4898 H       1  UNL1        0.0618
     11 C           7.9171    2.4385   14.9616 C.ar    1  UNL1       -0.0535
     12 H           8.3711    1.5813   15.4390 H       1  UNL1        0.0624
     13 C           5.9738   -0.1980   14.5062 C.ar    1  UNL1       -0.0147
     14 C           6.4648    0.0015   13.2203 C.ar    1  UNL1       -0.0535
     15 H           6.5550    1.0061   12.8331 H       1  UNL1        0.0624
     16 C           6.8398   -1.0814   12.4459 C.ar    1  UNL1       -0.0611
     17 H           7.2343   -0.9203   11.4532 H       1  UNL1        0.0618
     18 C           6.7083   -2.3702   12.9371 C.ar    1  UNL1       -0.0617
     19 H           7.0087   -3.2137   12.3325 H       1  UNL1        0.0618
     20 C           6.1795   -2.5765   14.2016 C.ar    1  UNL1       -0.0611
     21 H           6.0600   -3.5816   14.5810 H       1  UNL1        0.0618
     22 C           5.8081   -1.4978   14.9814 C.ar    1  UNL1       -0.0535
     23 H           5.4013   -1.6602   15.9709 H       1  UNL1        0.0624
     24 C           6.3584    0.8810   17.1127 C.ar    1  UNL1       -0.0147
     25 C           7.3467   -0.0817   17.2806 C.ar    1  UNL1       -0.0535
     26 H           7.6472   -0.7107   16.4544 H       1  UNL1        0.0624
     27 C           7.9531   -0.2467   18.5143 C.ar    1  UNL1       -0.0611
     28 H           8.7132   -1.0048   18.6380 H       1  UNL1        0.0618
     29 C           7.5914    0.5511   19.5856 C.ar    1  UNL1       -0.0617
     30 H           8.0637    0.4119   20.5471 H       1  UNL1        0.0618
     31 C           6.6249    1.5299   19.4181 C.ar    1  UNL1       -0.0611
     32 H           6.3464    2.1622   20.2489 H       1  UNL1        0.0618
     33 C           6.0133    1.6916   18.1902 C.ar    1  UNL1       -0.0535
     34 H           5.2498    2.4442   18.0406 H       1  UNL1        0.0624
@<TRIPOS>BOND
     1    17    16    1
     2    19    18    1
     3    16    18   ar
     4    16    14   ar
     5    15    14    1
     6    18    20   ar
     7    14    13   ar
     8     6     5    1
     9     8     7    1
    10     5     7   ar
    11     5     3   ar
    12     7     9   ar
    13    20    21    1
    14    20    22   ar
    15     4     3    1
    16     3     2   ar
    17     9    10    1
    18     9    11   ar
    19    13    22   ar
    20    13     1    1
    21     2    11   ar
    22     2     1    1
    23    11    12    1
    24    22    23    1
    25     1    24    1
    26    26    25    1
    27    24    25   ar
    28    24    33   ar
    29    25    27   ar
    30    34    33    1
    31    33    31   ar
    32    27    28    1
    33    27    29   ar
    34    31    29   ar
    35    31    32    1
    36    29    30    1
