@<TRIPOS>MOLECULE
1
 34 36 0 0 0
SMALL
GASTEIGER

@<TRIPOS>ATOM
      1 P          -2.0781    1.2890    4.0196 P.3     1  UNL1       -0.0131
      2 C          -3.3934    2.4331    3.4994 C.ar    1  UNL1       -0.0147
      3 C          -3.5146    3.6317    4.2003 C.ar    1  UNL1       -0.0535
      4 H          -2.8517    3.8217    5.0358 H       1  UNL1        0.0624
      5 C          -4.4564    4.5672    3.8185 C.ar    1  UNL1       -0.0611
      6 H          -4.5540    5.4906    4.3706 H       1  UNL1        0.0618
      7 C          -5.2665    4.3248    2.7193 C.ar    1  UNL1       -0.0617
      8 H          -5.9991    5.0587    2.4159 H       1  UNL1        0.0618
      9 C          -5.1253    3.1503    2.0008 C.ar    1  UNL1       -0.0611
     10 H          -5.7411    2.9705    1.1318 H       1  UNL1        0.0618
     11 C          -4.1919    2.2031    2.3868 C.ar    1  UNL1       -0.0535
     12 H          -4.0728    1.2939    1.8153 H       1  UNL1        0.0624
     13 C          -2.6021   -0.3194    3.3354 C.ar    1  UNL1       -0.0147
     14 C          -3.9076   -0.7209    3.6197 C.ar    1  UNL1       -0.0535
     15 H          -4.5517   -0.0764    4.2043 H       1  UNL1        0.0624
     16 C          -4.3767   -1.9326    3.1536 C.ar    1  UNL1       -0.0611
     17 H          -5.3911   -2.2353    3.3705 H       1  UNL1        0.0618
     18 C          -3.5467   -2.7590    2.4107 C.ar    1  UNL1       -0.0617
     19 H          -3.9162   -3.7066    2.0464 H       1  UNL1        0.0618
     20 C          -2.2470   -2.3699    2.1419 C.ar    1  UNL1       -0.0611
     21 H          -1.5958   -3.0142    1.5696 H       1  UNL1        0.0618
     22 C          -1.7711   -1.1537    2.6028 C.ar    1  UNL1       -0.0535
     23 H          -0.7549   -0.8614    2.3886 H       1  UNL1        0.0624
     24 C          -2.4741    0.9140    5.7705 C.ar    1  UNL1       -0.0147
     25 C          -3.5540    1.4123    6.4867 C.ar    1  UNL1       -0.0535
     26 H          -4.2482    2.0985    6.0229 H       1  UNL1        0.0624
     27 C          -3.7511    1.0228    7.8012 C.ar    1  UNL1       -0.0611
     28 H          -4.5930    1.4154    8.3536 H       1  UNL1        0.0618
     29 C          -2.8816    0.1318    8.4065 C.ar    1  UNL1       -0.0617
     30 H          -3.0412   -0.1671    9.4321 H       1  UNL1        0.0618
     31 C          -1.8103   -0.3798    7.6912 C.ar    1  UNL1       -0.0611
     32 H          -1.1380   -1.0866    8.1559 H       1  UNL1        0.0618
     33 C          -1.6079    0.0092    6.3815 C.ar    1  UNL1       -0.0535
     34 H          -0.7762   -0.3886    5.8140 H       1  UNL1        0.0624
@<TRIPOS>BOND
     1    10     9    1
     2    21    20    1
     3    12    11    1
     4     9    11   ar
     5     9     7   ar
     6    19    18    1
     7    20    18   ar
     8    20    22   ar
     9    11     2   ar
    10    23    22    1
    11    18    16   ar
    12     8     7    1
    13    22    13   ar
    14     7     5   ar
    15    16    17    1
    16    16    14   ar
    17    13    14   ar
    18    13     1    1
    19     2     1    1
    20     2     3   ar
    21    14    15    1
    22     5     3   ar
    23     5     6    1
    24     1    24    1
    25     3     4    1
    26    24    33   ar
    27    24    25   ar
    28    34    33    1
    29    26    25    1
    30    33    31   ar
    31    25    27   ar
    32    31    32    1
    33    31    29   ar
    34    27    28    1
    35    27    29   ar
    36    29    30    1
