@<TRIPOS>MOLECULE
1
 34 36 0 0 0
SMALL
GASTEIGER

@<TRIPOS>ATOM
      1 P           2.1726    2.8391    2.8964 P.3     1  UNL1       -0.0131
      2 C           3.1807    1.6180    1.9951 C.ar    1  UNL1       -0.0147
      3 C           2.5391    0.8390    1.0370 C.ar    1  UNL1       -0.0535
      4 H           1.4713    0.9392    0.8904 H       1  UNL1        0.0624
      5 C           3.2629   -0.0699    0.2881 C.ar    1  UNL1       -0.0611
      6 H           2.7596   -0.6817   -0.4461 H       1  UNL1        0.0618
      7 C           4.6284   -0.1981    0.4825 C.ar    1  UNL1       -0.0617
      8 H           5.1935   -0.9130   -0.0979 H       1  UNL1        0.0618
      9 C           5.2710    0.5904    1.4225 C.ar    1  UNL1       -0.0611
     10 H           6.3370    0.4944    1.5720 H       1  UNL1        0.0618
     11 C           4.5542    1.5010    2.1779 C.ar    1  UNL1       -0.0535
     12 H           5.0622    2.1091    2.9136 H       1  UNL1        0.0624
     13 C           2.3639    4.2368    1.7373 C.ar    1  UNL1       -0.0147
     14 C           3.5938    4.8645    1.5622 C.ar    1  UNL1       -0.0535
     15 H           4.4436    4.5614    2.1578 H       1  UNL1        0.0624
     16 C           3.7244    5.8782    0.6317 C.ar    1  UNL1       -0.0611
     17 H           4.6777    6.3701    0.5031 H       1  UNL1        0.0618
     18 C           2.6377    6.2592   -0.1408 C.ar    1  UNL1       -0.0617
     19 H           2.7462    7.0504   -0.8683 H       1  UNL1        0.0618
     20 C           1.4193    5.6201    0.0149 C.ar    1  UNL1       -0.0611
     21 H           0.5761    5.9055   -0.5963 H       1  UNL1        0.0618
     22 C           1.2811    4.6102    0.9511 C.ar    1  UNL1       -0.0535
     23 H           0.3372    4.0977    1.0739 H       1  UNL1        0.0624
     24 C           3.1747    3.3206    4.3333 C.ar    1  UNL1       -0.0147
     25 C           3.2671    4.6531    4.7223 C.ar    1  UNL1       -0.0535
     26 H           2.8025    5.4199    4.1187 H       1  UNL1        0.0624
     27 C           3.9529    4.9894    5.8750 C.ar    1  UNL1       -0.0611
     28 H           4.0381    6.0274    6.1649 H       1  UNL1        0.0618
     29 C           4.5336    4.0024    6.6548 C.ar    1  UNL1       -0.0617
     30 H           5.0810    4.2681    7.5475 H       1  UNL1        0.0618
     31 C           4.4063    2.6708    6.2932 C.ar    1  UNL1       -0.0611
     32 H           4.8448    1.9002    6.9104 H       1  UNL1        0.0618
     33 C           3.7229    2.3277    5.1419 C.ar    1  UNL1       -0.0535
     34 H           3.6021    1.2896    4.8637 H       1  UNL1        0.0624
@<TRIPOS>BOND
     1    19    18    1
     2    21    20    1
     3     6     5    1
     4    18    20   ar
     5    18    16   ar
     6     8     7    1
     7    20    22   ar
     8     5     7   ar
     9     5     3   ar
    10     7     9   ar
    11    17    16    1
    12    16    14   ar
    13     4     3    1
    14    22    23    1
    15    22    13   ar
    16     3     2   ar
    17     9    10    1
    18     9    11   ar
    19    14    13   ar
    20    14    15    1
    21    13     1    1
    22     2    11   ar
    23     2     1    1
    24    11    12    1
    25     1    24    1
    26    26    25    1
    27    24    25   ar
    28    24    33   ar
    29    25    27   ar
    30    34    33    1
    31    33    31   ar
    32    27    28    1
    33    27    29   ar
    34    31    29   ar
    35    31    32    1
    36    29    30    1
