@<TRIPOS>MOLECULE
1
 13 12 0 0 0
SMALL
GASTEIGER

@<TRIPOS>ATOM
      1 P           4.1296    4.7289   10.4737 P.3     1  UNL1       -0.1154
      2 C           3.7101    6.3327   11.2651 C.3     1  UNL1       -0.0447
      3 C           4.2940    5.2649    8.7184 C.3     1  UNL1       -0.0447
      4 C           2.4577    3.9695   10.4223 C.3     1  UNL1       -0.0447
      5 H           4.6073    6.9406   11.3344 H       1  UNL1        0.0277
      6 H           3.3443    6.1379   12.2705 H       1  UNL1        0.0277
      7 H           2.9464    6.8608   10.6947 H       1  UNL1        0.0277
      8 H           5.1424    5.9384    8.6299 H       1  UNL1        0.0277
      9 H           3.3877    5.7719    8.3885 H       1  UNL1        0.0277
     10 H           4.4715    4.3951    8.0895 H       1  UNL1        0.0277
     11 H           2.1868    3.6743   11.4319 H       1  UNL1        0.0277
     12 H           2.4834    3.0827    9.7954 H       1  UNL1        0.0277
     13 H           1.7286    4.6785   10.0306 H       1  UNL1        0.0277
@<TRIPOS>BOND
     1    10     3    1
     2     9     3    1
     3     8     3    1
     4     3     1    1
     5    12     4    1
     6    13     4    1
     7     4     1    1
     8     4    11    1
     9     1     2    1
    10     7     2    1
    11     2     5    1
    12     2     6    1
