@<TRIPOS>MOLECULE
1
 13 12 0 0 0
SMALL
GASTEIGER

@<TRIPOS>ATOM
      1 P           8.2234    3.0337   13.0921 P.3     1  UNL1       -0.1154
      2 C           8.2264    2.2077   14.7401 C.3     1  UNL1       -0.0447
      3 C           9.6019    2.1409   12.2564 C.3     1  UNL1       -0.0447
      4 C           9.1053    4.5681   13.5861 C.3     1  UNL1       -0.0447
      5 H           7.6828    1.2684   14.6936 H       1  UNL1        0.0277
      6 H           7.7324    2.8625   15.4544 H       1  UNL1        0.0277
      7 H           9.2501    2.0260   15.0661 H       1  UNL1        0.0277
      8 H           9.7913    2.6090   11.2923 H       1  UNL1        0.0277
      9 H           9.3188    1.1039   12.0906 H       1  UNL1        0.0277
     10 H          10.5071    2.1786   12.8618 H       1  UNL1        0.0277
     11 H           9.4250    5.1079   12.7006 H       1  UNL1        0.0277
     12 H           9.9698    4.3245   14.2037 H       1  UNL1        0.0277
     13 H           8.4240    5.2033   14.1474 H       1  UNL1        0.0277
@<TRIPOS>BOND
     1     8     3    1
     2     9     3    1
     3     3    10    1
     4     3     1    1
     5    11     4    1
     6     1     4    1
     7     1     2    1
     8     4    13    1
     9     4    12    1
    10     5     2    1
    11     2     7    1
    12     2     6    1
