@<TRIPOS>MOLECULE
1
 16 15 0 0 0
SMALL
GASTEIGER

@<TRIPOS>ATOM
      1 P           6.3628    5.4086    8.4199 P.3     1  UNL1        0.3337
      2 O           6.7404    5.3322    6.8430 O.3     1  UNL1       -0.3149
      3 O           7.7514    4.6750    8.7975 O.3     1  UNL1       -0.3149
      4 O           6.6471    6.9727    8.7951 O.3     1  UNL1       -0.3149
      5 C           5.8350    5.8776    5.9039 C.3     1  UNL1        0.0452
      6 H           4.8366    5.9877    6.3381 H       1  UNL1        0.0528
      7 H           5.7919    5.2031    5.0473 H       1  UNL1        0.0528
      8 H           6.1847    6.8585    5.5728 H       1  UNL1        0.0528
      9 C           8.0102    4.3442   10.1518 C.3     1  UNL1        0.0452
     10 H           7.8342    5.2007   10.8074 H       1  UNL1        0.0528
     11 H           9.0582    4.0469   10.1988 H       1  UNL1        0.0528
     12 H           7.3691    3.5194   10.4744 H       1  UNL1        0.0528
     13 C           7.8637    7.5962    8.3946 C.3     1  UNL1        0.0452
     14 H           8.4813    6.9096    7.8106 H       1  UNL1        0.0528
     15 H           8.4103    7.9090    9.2863 H       1  UNL1        0.0528
     16 H           7.6234    8.4756    7.7934 H       1  UNL1        0.0528
@<TRIPOS>BOND
     1     7     5    1
     2     8     5    1
     3     5     6    1
     4     5     2    1
     5     2     1    1
     6    16    13    1
     7    14    13    1
     8    13     4    1
     9    13    15    1
    10     1     4    1
    11     1     3    1
    12     3     9    1
    13     9    11    1
    14     9    12    1
    15     9    10    1
