@<TRIPOS>MOLECULE
1
 18 18 0 0 0
SMALL
GASTEIGER

@<TRIPOS>ATOM
      1 P           4.4509    3.7378   -0.0415 P.3     1  UNL1        0.0776
      2 N           3.5957    4.9337   -1.0121 N.3     1  UNL1       -0.1869
      3 O           4.8260    5.5658    2.5615 O.3     1  UNL1       -0.4948
      4 C           3.5444    5.2291    0.2353 C.3     1  UNL1        0.1224
      5 C           3.1371    6.2778    1.0993 C.ar    1  UNL1        0.0206
      6 C           2.1092    7.1531    0.7477 C.ar    1  UNL1       -0.0531
      7 H           1.6144    7.0122   -0.2007 H       1  UNL1        0.0622
      8 C           1.7357    8.1661    1.6058 C.ar    1  UNL1       -0.0612
      9 H           0.9371    8.8396    1.3375 H       1  UNL1        0.0618
     10 C           2.4000    8.3176    2.8136 C.ar    1  UNL1       -0.0583
     11 H           2.1149    9.1113    3.4877 H       1  UNL1        0.0619
     12 C           3.4353    7.4712    3.1728 C.ar    1  UNL1       -0.0196
     13 H           3.9365    7.6258    4.1148 H       1  UNL1        0.0654
     14 C           3.8185    6.4382    2.3248 C.ar    1  UNL1        0.1252
     15 C           5.5779    5.7184    3.7478 C.3     1  UNL1        0.0788
     16 H           6.0768    6.6910    3.7748 H       1  UNL1        0.0660
     17 H           6.3284    4.9315    3.7298 H       1  UNL1        0.0660
     18 H           4.9486    5.5985    4.6348 H       1  UNL1        0.0660
@<TRIPOS>BOND
     1     2     1    1
     2     2     4    1
     3     7     6    1
     4     4     5    1
     5     6     5   ar
     6     6     8   ar
     7     5    14   ar
     8     9     8    1
     9     8    10   ar
    10    14     3    1
    11    14    12   ar
    12     3    15    1
    13    10    12   ar
    14    10    11    1
    15    12    13    1
    16    17    15    1
    17    15    16    1
    18    15    18    1
