@<TRIPOS>MOLECULE
1
 34 36 0 0 0
SMALL
GASTEIGER

@<TRIPOS>ATOM
      1 P           6.0011   13.0720    8.4763 P.3     1  UNL1       -0.0131
      2 C           4.5096   13.9174    9.1239 C.ar    1  UNL1       -0.0147
      3 C           3.4341   14.2240    8.2955 C.ar    1  UNL1       -0.0535
      4 C           2.3116   14.8400    8.8175 C.ar    1  UNL1       -0.0611
      5 C           2.2534   15.1557   10.1659 C.ar    1  UNL1       -0.0617
      6 C           3.3218   14.8542   10.9937 C.ar    1  UNL1       -0.0611
      7 C           4.4463   14.2370   10.4746 C.ar    1  UNL1       -0.0535
      8 C           6.2499   14.0308    6.9325 C.ar    1  UNL1       -0.0147
      9 C           7.1057   15.1253    7.0107 C.ar    1  UNL1       -0.0535
     10 C           7.3226   15.9266    5.9055 C.ar    1  UNL1       -0.0611
     11 C           6.6925   15.6356    4.7059 C.ar    1  UNL1       -0.0617
     12 C           5.8439   14.5449    4.6195 C.ar    1  UNL1       -0.0611
     13 C           5.6177   13.7455    5.7267 C.ar    1  UNL1       -0.0535
     14 C           5.2972   11.5132    7.8517 C.ar    1  UNL1       -0.0147
     15 C           4.1562   10.9490    8.4088 C.ar    1  UNL1       -0.0535
     16 C           3.7105    9.7122    7.9749 C.ar    1  UNL1       -0.0611
     17 C           4.4026    9.0278    6.9898 C.ar    1  UNL1       -0.0617
     18 C           5.5491    9.5800    6.4389 C.ar    1  UNL1       -0.0611
     19 C           5.9991   10.8121    6.8729 C.ar    1  UNL1       -0.0535
     20 H           3.4770   13.9826    7.2432 H       1  UNL1        0.0624
     21 H           1.4791   15.0763    8.1709 H       1  UNL1        0.0618
     22 H           1.3751   15.6381   10.5689 H       1  UNL1        0.0618
     23 H           3.2795   15.1008   12.0441 H       1  UNL1        0.0618
     24 H           5.2927   13.9956   11.1054 H       1  UNL1        0.0624
     25 H           7.6027   15.3264    7.9514 H       1  UNL1        0.0624
     26 H           7.9870   16.7747    5.9764 H       1  UNL1        0.0618
     27 H           6.8659   16.2546    3.8382 H       1  UNL1        0.0618
     28 H           5.3547   14.3135    3.6844 H       1  UNL1        0.0618
     29 H           4.9578   12.8929    5.6432 H       1  UNL1        0.0624
     30 H           3.6164   11.4796    9.1800 H       1  UNL1        0.0624
     31 H           2.8229    9.2791    8.4121 H       1  UNL1        0.0618
     32 H           4.0549    8.0615    6.6558 H       1  UNL1        0.0618
     33 H           6.0951    9.0438    5.6763 H       1  UNL1        0.0618
     34 H           6.8997   11.2448    6.4570 H       1  UNL1        0.0624
@<TRIPOS>BOND
     1    28    12    1
     2    27    11    1
     3    12    11   ar
     4    12    13   ar
     5    11    10   ar
     6    29    13    1
     7    33    18    1
     8    13     8   ar
     9    10    26    1
    10    10     9   ar
    11    18    19   ar
    12    18    17   ar
    13    34    19    1
    14    32    17    1
    15    19    14   ar
    16     8     9   ar
    17     8     1    1
    18    17    16   ar
    19     9    25    1
    20    20     3    1
    21    14    15   ar
    22    14     1    1
    23    16    15   ar
    24    16    31    1
    25    21     4    1
    26     3     4   ar
    27     3     2   ar
    28    15    30    1
    29     1     2    1
    30     4     5   ar
    31     2     7   ar
    32     5    22    1
    33     5     6   ar
    34     7     6   ar
    35     7    24    1
    36     6    23    1
