@<TRIPOS>MOLECULE
4
 31 30 0 0 0
SMALL
GASTEIGER

@<TRIPOS>ATOM
      1 I           9.0402    8.6250    5.7466 I       1  UNL1        0.0000
      2 SI          7.7112    7.8634    9.7345 Si      1  UNL1        0.0000
      3 SI         10.9479    8.0585    8.9778 Si      1  UNL1        0.0000
      4 P           8.9683    6.5762    7.0856 P.3     1  UNL1        0.0000
      5 CL          7.0230    6.1806    6.9781 Cl      1  UNL1        0.0000
      6 C           9.2470    7.1278    8.7962 C.3     1  UNL1        0.0000
      7 C           6.4429    6.4718   10.0771 C.3     1  UNL1        0.0000
      8 H           6.0943    6.5268   11.1041 H       1  UNL1        0.0000
      9 H           6.8663    5.4813    9.9331 H       1  UNL1        0.0000
     10 H           5.5695    6.5474    9.4372 H       1  UNL1        0.0000
     11 C           6.9324    9.3112    8.7760 C.3     1  UNL1        0.0000
     12 H           6.4454    8.9837    7.8628 H       1  UNL1        0.0000
     13 H           7.6634   10.0659    8.5033 H       1  UNL1        0.0000
     14 H           6.1774    9.7947    9.3882 H       1  UNL1        0.0000
     15 C           8.2843    8.4483   11.4548 C.3     1  UNL1        0.0000
     16 H           9.0695    9.1935   11.4219 H       1  UNL1        0.0000
     17 H           8.6394    7.6175   12.0560 H       1  UNL1        0.0000
     18 H           7.4410    8.8858   11.9789 H       1  UNL1        0.0000
     19 C          11.6866    7.4269   10.6156 C.3     1  UNL1        0.0000
     20 H          12.6188    7.9402   10.8255 H       1  UNL1        0.0000
     21 H          11.9056    6.3642   10.5696 H       1  UNL1        0.0000
     22 H          11.0266    7.5910   11.4592 H       1  UNL1        0.0000
     23 C          10.7059    9.9492    8.9976 C.3     1  UNL1        0.0000
     24 H           9.9351   10.2690    9.6893 H       1  UNL1        0.0000
     25 H          10.4542   10.3428    8.0179 H       1  UNL1        0.0000
     26 H          11.6341   10.4212    9.3039 H       1  UNL1        0.0000
     27 C          12.2147    7.6616    7.6098 C.3     1  UNL1        0.0000
     28 H          11.9421    8.0846    6.6481 H       1  UNL1        0.0000
     29 H          12.3641    6.5931    7.4771 H       1  UNL1        0.0000
     30 H          13.1778    8.0873    7.8781 H       1  UNL1        0.0000
     31 H           9.4214    6.1571    9.2816 H       1  UNL1        0.0000
@<TRIPOS>BOND
     1     1     4    1
     2    28    27    1
     3     5     4    1
     4     4     6    1
     5    29    27    1
     6    27    30    1
     7    27     3    1
     8    12    11    1
     9    25    23    1
    10    13    11    1
    11    11    14    1
    12    11     2    1
    13     6     3    1
    14     6    31    1
    15     6     2    1
    16     3    23    1
    17     3    19    1
    18    23    26    1
    19    23    24    1
    20    10     7    1
    21     2     7    1
    22     2    15    1
    23     9     7    1
    24     7     8    1
    25    21    19    1
    26    19    20    1
    27    19    22    1
    28    16    15    1
    29    15    18    1
    30    15    17    1
