@<TRIPOS>MOLECULE
2
 55 56 0 0 0
SMALL
GASTEIGER

@<TRIPOS>ATOM
      1 I           8.4623    6.9428   12.5891 I       1  UNL1        0.0000
      2 P           7.9901    9.6135   14.0998 P.3     1  UNL1        0.0000
      3 SI          5.7170    8.8232   12.1858 Si      1  UNL1        0.0000
      4 SI          8.6612    9.8590   11.0142 Si      1  UNL1        0.0000
      5 C           7.6412    8.9754   12.4170 C.3     1  UNL1        0.0000
      6 C           4.8616    8.5134   13.8539 C.3     1  UNL1        0.0000
      7 H           3.7967    8.3579   13.7072 H       1  UNL1        0.0000
      8 H           4.9784    9.3667   14.5168 H       1  UNL1        0.0000
      9 H           5.2492    7.6347   14.3611 H       1  UNL1        0.0000
     10 C           5.3188    7.3824   11.0068 C.3     1  UNL1        0.0000
     11 H           5.3601    6.4267   11.5195 H       1  UNL1        0.0000
     12 H           5.9983    7.3278   10.1640 H       1  UNL1        0.0000
     13 H           4.3143    7.4994   10.6142 H       1  UNL1        0.0000
     14 C           5.0284   10.4603   11.4882 C.3     1  UNL1        0.0000
     15 H           3.9546   10.3654   11.3646 H       1  UNL1        0.0000
     16 H           5.4451   10.7158   10.5207 H       1  UNL1        0.0000
     17 H           5.2057   11.2918   12.1619 H       1  UNL1        0.0000
     18 C           8.5075   11.7456   11.2267 C.3     1  UNL1        0.0000
     19 H           8.9253   12.0810   12.1711 H       1  UNL1        0.0000
     20 H           7.4750   12.0751   11.1883 H       1  UNL1        0.0000
     21 H           9.0435   12.2502   10.4291 H       1  UNL1        0.0000
     22 C          10.4910    9.3171   10.9679 C.3     1  UNL1        0.0000
     23 H          11.0921   10.0752   10.4746 H       1  UNL1        0.0000
     24 H          10.6020    8.3953   10.4042 H       1  UNL1        0.0000
     25 H          10.9175    9.1518   11.9510 H       1  UNL1        0.0000
     26 C           7.9377    9.3150    9.3367 C.3     1  UNL1        0.0000
     27 H           8.4773    9.8139    8.5389 H       1  UNL1        0.0000
     28 H           6.8872    9.5533    9.2206 H       1  UNL1        0.0000
     29 H           8.0566    8.2468    9.1861 H       1  UNL1        0.0000
     30 C           9.6352   10.2294   13.9753 C.1     1  UNL1        0.0000
     31 C          10.7834   10.5815   14.1400 C.1     1  UNL1        0.0000
     32 C          12.1312   10.9843   14.2476 C.ar    1  UNL1        0.0000
     33 C          12.7248   11.7551   13.2470 C.ar    1  UNL1        0.0000
     34 H          12.1404   12.0506   12.3876 H       1  UNL1        0.0000
     35 C          14.0489   12.1291   13.3656 C.ar    1  UNL1        0.0000
     36 H          14.5095   12.7248   12.5911 H       1  UNL1        0.0000
     37 C          14.7872   11.7419   14.4733 C.ar    1  UNL1        0.0000
     38 H          15.8226   12.0360   14.5602 H       1  UNL1        0.0000
     39 C          14.1991   10.9776   15.4690 C.ar    1  UNL1        0.0000
     40 H          14.7756   10.6766   16.3311 H       1  UNL1        0.0000
     41 C          12.8760   10.5966   15.3627 C.ar    1  UNL1        0.0000
     42 H          12.4085    9.9994   16.1320 H       1  UNL1        0.0000
     43 C           7.1433   11.1577   14.1081 C.1     1  UNL1        0.0000
     44 C           6.5381   12.1732   14.3756 C.1     1  UNL1        0.0000
     45 C           5.8128   13.3623   14.6044 C.ar    1  UNL1        0.0000
     46 C           5.5814   14.2665   13.5667 C.ar    1  UNL1        0.0000
     47 H           5.9697   14.0572   12.5803 H       1  UNL1        0.0000
     48 C           4.8617   15.4202   13.8092 C.ar    1  UNL1        0.0000
     49 H           4.6822   16.1188   13.0052 H       1  UNL1        0.0000
     50 C           4.3712   15.6829   15.0788 C.ar    1  UNL1        0.0000
     51 H           3.8102   16.5869   15.2633 H       1  UNL1        0.0000
     52 C           4.6003   14.7871   16.1116 C.ar    1  UNL1        0.0000
     53 H           4.2179   14.9930   17.1003 H       1  UNL1        0.0000
     54 C           5.3164   13.6288   15.8817 C.ar    1  UNL1        0.0000
     55 H           5.4978   12.9232   16.6791 H       1  UNL1        0.0000
@<TRIPOS>BOND
     1    27    26    1
     2    29    26    1
     3    28    26    1
     4    26     4    1
     5    12    10    1
     6    24    22    1
     7    21    18    1
     8    23    22    1
     9    16    14    1
    10    13    10    1
    11    22     4    1
    12    22    25    1
    13    10    11    1
    14    10     3    1
    15     4    18    1
    16     4     5    1
    17    20    18    1
    18    18    19    1
    19    15    14    1
    20    14    17    1
    21    14     3    1
    22     3     5    1
    23     3     6    1
    24    34    33    1
    25     5     1    1
    26     5     2    1
    27    47    46    1
    28    36    35    1
    29    49    48    1
    30    33    35   ar
    31    33    32   ar
    32    35    37   ar
    33    46    48   ar
    34    46    45   ar
    35     7     6    1
    36    48    50   ar
    37     6     9    1
    38     6     8    1
    39    30     2    1
    40    30    31    3
    41     2    43    1
    42    43    44    3
    43    31    32    1
    44    32    41   ar
    45    44    45    1
    46    37    38    1
    47    37    39   ar
    48    45    54   ar
    49    50    51    1
    50    50    52   ar
    51    41    39   ar
    52    41    42    1
    53    39    40    1
    54    54    52   ar
    55    54    55    1
    56    52    53    1
