@<TRIPOS>MOLECULE
1
 34 36 0 0 0
SMALL
GASTEIGER

@<TRIPOS>ATOM
      1 P           6.6886   14.7048   11.6107 P.3     1  UNL1       -0.0131
      2 C           5.4434   13.5729   12.3313 C.ar    1  UNL1       -0.0147
      3 C           5.4939   13.3063   13.6929 C.ar    1  UNL1       -0.0535
      4 H           6.2674   13.7808   14.2814 H       1  UNL1        0.0624
      5 C           4.5783   12.4430   14.2686 C.ar    1  UNL1       -0.0611
      6 H           4.6212   12.2370   15.3282 H       1  UNL1        0.0618
      7 C           3.6090   11.8405   13.4842 C.ar    1  UNL1       -0.0617
      8 H           2.8933   11.1663   13.9315 H       1  UNL1        0.0618
      9 C           3.5592   12.0968   12.1224 C.ar    1  UNL1       -0.0611
     10 H           2.8059   11.6213   11.5110 H       1  UNL1        0.0618
     11 C           4.4740   12.9567   11.5443 C.ar    1  UNL1       -0.0535
     12 H           4.4421   13.1546   10.4811 H       1  UNL1        0.0624
     13 C           5.6524   15.9636   10.7899 C.ar    1  UNL1       -0.0147
     14 C           6.3093   16.8359    9.9233 C.ar    1  UNL1       -0.0535
     15 H           7.3617   16.6789    9.7278 H       1  UNL1        0.0624
     16 C           5.6286   17.8821    9.3324 C.ar    1  UNL1       -0.0611
     17 H           6.1423   18.5499    8.6557 H       1  UNL1        0.0618
     18 C           4.2857   18.0807    9.6172 C.ar    1  UNL1       -0.0617
     19 H           3.7518   18.9009    9.1604 H       1  UNL1        0.0618
     20 C           3.6334   17.2327   10.4958 C.ar    1  UNL1       -0.0611
     21 H           2.5903   17.3941   10.7272 H       1  UNL1        0.0618
     22 C           4.3125   16.1795   11.0855 C.ar    1  UNL1       -0.0535
     23 H           3.7988   15.5248   11.7759 H       1  UNL1        0.0624
     24 C           7.1746   13.6391   10.2020 C.ar    1  UNL1       -0.0147
     25 C           7.9793   12.5475   10.5204 C.ar    1  UNL1       -0.0535
     26 H           8.2925   12.4128   11.5458 H       1  UNL1        0.0624
     27 C           8.3738   11.6567    9.5413 C.ar    1  UNL1       -0.0611
     28 H           8.9998   10.8148    9.7976 H       1  UNL1        0.0618
     29 C           7.9671   11.8464    8.2296 C.ar    1  UNL1       -0.0617
     30 H           8.2761   11.1533    7.4611 H       1  UNL1        0.0618
     31 C           7.1633   12.9256    7.9069 C.ar    1  UNL1       -0.0611
     32 H           6.8413   13.0735    6.8861 H       1  UNL1        0.0618
     33 C           6.7648   13.8199    8.8867 C.ar    1  UNL1       -0.0535
     34 H           6.1343   14.6565    8.6210 H       1  UNL1        0.0624
@<TRIPOS>BOND
     1    32    31    1
     2    30    29    1
     3    31    29   ar
     4    31    33   ar
     5    29    27   ar
     6    34    33    1
     7    17    16    1
     8    33    24   ar
     9    19    18    1
    10    16    18   ar
    11    16    14   ar
    12    27    28    1
    13    27    25   ar
    14    18    20   ar
    15    15    14    1
    16    14    13   ar
    17    24    25   ar
    18    24     1    1
    19    12    11    1
    20    20    21    1
    21    20    22   ar
    22    25    26    1
    23    13    22   ar
    24    13     1    1
    25    22    23    1
    26    10     9    1
    27    11     9   ar
    28    11     2   ar
    29     1     2    1
    30     9     7   ar
    31     2     3   ar
    32     7     8    1
    33     7     5   ar
    34     3     5   ar
    35     3     4    1
    36     5     6    1
