@<TRIPOS>MOLECULE
1
 45 46 0 0 0
SMALL
GASTEIGER

@<TRIPOS>ATOM
      1 P           3.3748    3.4825   10.0917 P.3     1  UNL1        0.0000
      2 SI          2.4373    4.0775    7.1382 Si      1  UNL1        0.0000
      3 SI          3.2296    6.4192    9.4012 Si      1  UNL1        0.0000
      4 O           2.3426    1.0120    9.0948 O.2     1  UNL1        0.0000
      5 C           2.2291    2.0294    9.7212 C.2     1  UNL1        0.0000
      6 C           1.1844    2.5714   10.6256 C.2     1  UNL1        0.0000
      7 C           1.7954    3.7354   10.9801 C.2     1  UNL1        0.0000
      8 H           1.4656    4.4866   11.6801 H       1  UNL1        0.0000
      9 C           3.4450    4.6396    8.6857 C.3     1  UNL1        0.0000
     10 H           4.4970    4.5773    8.3836 H       1  UNL1        0.0000
     11 C           3.3274    2.5630    6.4047 C.3     1  UNL1        0.0000
     12 H           2.8294    2.2132    5.5052 H       1  UNL1        0.0000
     13 H           3.3523    1.7342    7.1058 H       1  UNL1        0.0000
     14 H           4.3548    2.7976    6.1387 H       1  UNL1        0.0000
     15 C           0.6083    3.7111    7.5419 C.3     1  UNL1        0.0000
     16 H           0.2258    4.3364    8.3419 H       1  UNL1        0.0000
     17 H           0.4665    2.6767    7.8365 H       1  UNL1        0.0000
     18 H          -0.0103    3.8828    6.6662 H       1  UNL1        0.0000
     19 C           2.4988    5.4859    5.8535 C.3     1  UNL1        0.0000
     20 H           3.5187    5.7798    5.6310 H       1  UNL1        0.0000
     21 H           1.9626    6.3684    6.1844 H       1  UNL1        0.0000
     22 H           2.0457    5.1587    4.9238 H       1  UNL1        0.0000
     23 C           3.9462    6.5104   11.1659 C.3     1  UNL1        0.0000
     24 H           5.0302    6.4402   11.1511 H       1  UNL1        0.0000
     25 H           3.5796    5.7045   11.7966 H       1  UNL1        0.0000
     26 H           3.6900    7.4492   11.6485 H       1  UNL1        0.0000
     27 C           4.2170    7.6316    8.3138 C.3     1  UNL1        0.0000
     28 H           3.8308    7.6810    7.3025 H       1  UNL1        0.0000
     29 H           5.2635    7.3493    8.2552 H       1  UNL1        0.0000
     30 H           4.1728    8.6325    8.7300 H       1  UNL1        0.0000
     31 C           1.3820    6.8985    9.4242 C.3     1  UNL1        0.0000
     32 H           1.2552    7.8872    9.8535 H       1  UNL1        0.0000
     33 H           0.7831    6.2076   10.0087 H       1  UNL1        0.0000
     34 H           0.9678    6.9226    8.4218 H       1  UNL1        0.0000
     35 C          -0.0759    1.9720   11.0085 C.ar    1  UNL1        0.0000
     36 C          -0.9669    2.6461   11.8493 C.ar    1  UNL1        0.0000
     37 H          -0.7113    3.6261   12.2236 H       1  UNL1        0.0000
     38 C          -2.1683    2.0655   12.2015 C.ar    1  UNL1        0.0000
     39 H          -2.8501    2.5930   12.8523 H       1  UNL1        0.0000
     40 C          -2.5010    0.8067   11.7236 C.ar    1  UNL1        0.0000
     41 H          -3.4411    0.3549   12.0030 H       1  UNL1        0.0000
     42 C          -1.6256    0.1305   10.8892 C.ar    1  UNL1        0.0000
     43 H          -1.8831   -0.8500   10.5174 H       1  UNL1        0.0000
     44 C          -0.4217    0.7054   10.5303 C.ar    1  UNL1        0.0000
     45 H           0.2617    0.1775    9.8836 H       1  UNL1        0.0000
@<TRIPOS>BOND
     1    22    19    1
     2    12    11    1
     3    20    19    1
     4    19    21    1
     5    19     2    1
     6    14    11    1
     7    11    13    1
     8    11     2    1
     9    18    15    1
    10     2    15    1
    11     2     9    1
    12    28    27    1
    13    15    17    1
    14    15    16    1
    15    29    27    1
    16    27    30    1
    17    27     3    1
    18    10     9    1
    19    34    31    1
    20     9     3    1
    21     9     1    1
    22     4     5    2
    23     3    31    1
    24     3    23    1
    25    31    32    1
    26    31    33    1
    27     5     1    1
    28     5     6    1
    29    45    44    1
    30     1     7    1
    31    43    42    1
    32    44    42   ar
    33    44    35   ar
    34     6     7    2
    35     6    35    1
    36    42    40   ar
    37     7     8    1
    38    35    36   ar
    39    24    23    1
    40    23    26    1
    41    23    25    1
    42    40    41    1
    43    40    38   ar
    44    36    38   ar
    45    36    37    1
    46    38    39    1
