@<TRIPOS>MOLECULE
1
 57 59 0 0 0
SMALL
GASTEIGER

@<TRIPOS>ATOM
      1 P           3.9293    4.5238    4.2476 P.3     1  UNL1        0.0000
      2 SI          2.5261    7.1984    4.8390 Si      1  UNL1        0.0000
      3 SI          2.4205    5.6760    1.8846 Si      1  UNL1        0.0000
      4 N           4.4910    3.6371    2.9396 N.2     1  UNL1        0.0000
      5 N           5.9673    4.3423    7.3069 N.1     1  UNL1        0.0000
      6 C           5.8049    4.8265    4.7740 C.3     1  UNL1        0.0000
      7 C           5.7168    3.2918    3.0583 C.2     1  UNL1        0.0000
      8 C           6.3624    2.3503    2.1559 C.ar    1  UNL1        0.0000
      9 C           5.5988    1.6996    1.1861 C.ar    1  UNL1        0.0000
     10 H           4.5418    1.9075    1.1269 H       1  UNL1        0.0000
     11 C           6.1998    0.7977    0.3311 C.ar    1  UNL1        0.0000
     12 H           5.6091    0.2908   -0.4168 H       1  UNL1        0.0000
     13 C           7.5582    0.5377    0.4361 C.ar    1  UNL1        0.0000
     14 H           8.0244   -0.1709   -0.2322 H       1  UNL1        0.0000
     15 C           8.3187    1.1817    1.3996 C.ar    1  UNL1        0.0000
     16 H           9.3753    0.9751    1.4815 H       1  UNL1        0.0000
     17 C           7.7276    2.0867    2.2601 C.ar    1  UNL1        0.0000
     18 H           8.3090    2.5911    3.0164 H       1  UNL1        0.0000
     19 C           3.3724    6.0889    3.5156 C.3     1  UNL1        0.0000
     20 H           4.2758    6.6131    3.1903 H       1  UNL1        0.0000
     21 C           3.4513    7.1077    6.5030 C.3     1  UNL1        0.0000
     22 H           2.7653    7.2204    7.3372 H       1  UNL1        0.0000
     23 H           4.1981    7.8903    6.5912 H       1  UNL1        0.0000
     24 H           3.9544    6.1521    6.6263 H       1  UNL1        0.0000
     25 C           0.7158    6.6905    5.1434 C.3     1  UNL1        0.0000
     26 H           0.6587    5.9146    5.9017 H       1  UNL1        0.0000
     27 H           0.2251    6.3179    4.2508 H       1  UNL1        0.0000
     28 H           0.1421    7.5383    5.5051 H       1  UNL1        0.0000
     29 C           2.6627    8.9977    4.2202 C.3     1  UNL1        0.0000
     30 H           2.3410    9.6840    4.9963 H       1  UNL1        0.0000
     31 H           2.0480    9.1823    3.3477 H       1  UNL1        0.0000
     32 H           3.6870    9.2526    3.9634 H       1  UNL1        0.0000
     33 C           1.3585    7.1753    1.3764 C.3     1  UNL1        0.0000
     34 H           1.9706    8.0441    1.1623 H       1  UNL1        0.0000
     35 H           0.6358    7.4548    2.1334 H       1  UNL1        0.0000
     36 H           0.8099    6.9362    0.4723 H       1  UNL1        0.0000
     37 C           3.6979    5.4286    0.4829 C.3     1  UNL1        0.0000
     38 H           3.1985    5.3131   -0.4743 H       1  UNL1        0.0000
     39 H           4.3064    4.5454    0.6466 H       1  UNL1        0.0000
     40 H           4.3637    6.2836    0.3998 H       1  UNL1        0.0000
     41 C           1.3047    4.1500    2.0663 C.3     1  UNL1        0.0000
     42 H           0.9855    3.7853    1.0945 H       1  UNL1        0.0000
     43 H           0.4092    4.3644    2.6410 H       1  UNL1        0.0000
     44 H           1.8379    3.3459    2.5654 H       1  UNL1        0.0000
     45 C           6.3623    6.1737    4.4027 C.ar    1  UNL1        0.0000
     46 C           6.6029    7.1525    5.3603 C.ar    1  UNL1        0.0000
     47 H           6.4336    6.9366    6.4039 H       1  UNL1        0.0000
     48 C           7.0793    8.3941    4.9794 C.ar    1  UNL1        0.0000
     49 H           7.2647    9.1462    5.7313 H       1  UNL1        0.0000
     50 C           7.3269    8.6703    3.6453 C.ar    1  UNL1        0.0000
     51 H           7.6979    9.6405    3.3517 H       1  UNL1        0.0000
     52 C           7.1104    7.6917    2.6905 C.ar    1  UNL1        0.0000
     53 H           7.3139    7.8929    1.6493 H       1  UNL1        0.0000
     54 C           6.6314    6.4491    3.0641 C.ar    1  UNL1        0.0000
     55 H           6.4748    5.6884    2.3119 H       1  UNL1        0.0000
     56 C           5.9035    4.5528    6.1826 C.1     1  UNL1        0.0000
     57 O           6.4803    3.7976    4.0428 O.2     1  UNL1        0.0000
@<TRIPOS>BOND
     1    38    37    1
     2    12    11    1
     3    14    13    1
     4    11    13   ar
     5    11     9   ar
     6    40    37    1
     7    13    15   ar
     8    36    33    1
     9    37    39    1
    10    37     3    1
    11    42    41    1
    12    10     9    1
    13    34    33    1
    14     9     8   ar
    15    33     3    1
    16    33    35    1
    17    15    16    1
    18    15    17   ar
    19    53    52    1
    20     3    41    1
    21     3    19    1
    22    41    44    1
    23    41    43    1
    24     8    17   ar
    25     8     7    1
    26    17    18    1
    27    55    54    1
    28    52    54   ar
    29    52    50   ar
    30     4     7    2
    31     4     1    1
    32     7    57    1
    33    54    45   ar
    34    20    19    1
    35    31    29    1
    36    51    50    1
    37    19     1    1
    38    19     2    1
    39    50    48   ar
    40    32    29    1
    41    57     6    1
    42    29     2    1
    43    29    30    1
    44     1     6    1
    45    27    25    1
    46    45     6    1
    47    45    46   ar
    48     6    56    1
    49     2    25    1
    50     2    21    1
    51    48    46   ar
    52    48    49    1
    53    25    28    1
    54    25    26    1
    55    46    47    1
    56    56     5    3
    57    21    23    1
    58    21    24    1
    59    21    22    1
