@<TRIPOS>MOLECULE
1
 85 88 0 0 0
SMALL
GASTEIGER

@<TRIPOS>ATOM
      1 P           5.1051    3.9253   13.2853 P.3     1  UNL1        0.0000
      2 P           5.6888    4.2374   15.3333 P.3     1  UNL1        0.0000
      3 P           5.2428    2.0585   15.3103 P.3     1  UNL1        0.0000
      4 SI          8.0199    5.8482   16.4894 Si      1  UNL1        0.0000
      5 SI          8.6547    3.1518   14.5994 Si      1  UNL1        0.0000
      6 SI          2.8084    3.3026   17.0783 Si      1  UNL1        0.0000
      7 SI          4.7777    0.8115   17.9814 Si      1  UNL1        0.0000
      8 C           4.3518    2.4787   13.7847 C.3     1  UNL1        0.0000
      9 C           3.5598    1.5301   12.9365 C.3     1  UNL1        0.0000
     10 C           3.7809    1.8295   11.4506 C.3     1  UNL1        0.0000
     11 H           3.4667    2.8566   11.2359 H       1  UNL1        0.0000
     12 H           4.8477    1.7492   11.2187 H       1  UNL1        0.0000
     13 C           2.9795    0.8584   10.5873 C.3     1  UNL1        0.0000
     14 H           3.1563    1.0879    9.5306 H       1  UNL1        0.0000
     15 C           3.4226   -0.5740   10.8812 C.3     1  UNL1        0.0000
     16 H           4.4820   -0.6924   10.6423 H       1  UNL1        0.0000
     17 H           2.8586   -1.2729   10.2595 H       1  UNL1        0.0000
     18 C           3.1844   -0.8822   12.3586 C.3     1  UNL1        0.0000
     19 H           3.5042   -1.9080   12.5753 H       1  UNL1        0.0000
     20 C           1.6982   -0.7321   12.6798 C.3     1  UNL1        0.0000
     21 H           1.5191   -0.9642   13.7327 H       1  UNL1        0.0000
     22 H           1.1156   -1.4339   12.0790 H       1  UNL1        0.0000
     23 C           1.2579    0.6999   12.3791 C.3     1  UNL1        0.0000
     24 H           0.1928    0.8119   12.6117 H       1  UNL1        0.0000
     25 C           1.4925    1.0102   10.9020 C.3     1  UNL1        0.0000
     26 H           0.9077    0.3289   10.2800 H       1  UNL1        0.0000
     27 H           1.1676    2.0293   10.6804 H       1  UNL1        0.0000
     28 C           2.0606    1.6736   13.2394 C.3     1  UNL1        0.0000
     29 H           1.7506    2.6995   13.0286 H       1  UNL1        0.0000
     30 H           1.8761    1.4783   14.2980 H       1  UNL1        0.0000
     31 C           3.9935    0.0871   13.2177 C.3     1  UNL1        0.0000
     32 H           5.0595   -0.0188   12.9956 H       1  UNL1        0.0000
     33 H           3.8509   -0.1439   14.2770 H       1  UNL1        0.0000
     34 C           7.5069    4.6146   15.0968 C.3     1  UNL1        0.0000
     35 H           7.4780    5.2480   14.1987 H       1  UNL1        0.0000
     36 C           6.7580    7.2783   16.4286 C.3     1  UNL1        0.0000
     37 H           6.9459    8.0109   17.2074 H       1  UNL1        0.0000
     38 H           5.7405    6.9188   16.5539 H       1  UNL1        0.0000
     39 H           6.8026    7.7975   15.4750 H       1  UNL1        0.0000
     40 C           9.7518    6.5818   16.1843 C.3     1  UNL1        0.0000
     41 H           9.9074    6.8362   15.1417 H       1  UNL1        0.0000
     42 H          10.5390    5.8981   16.4811 H       1  UNL1        0.0000
     43 H           9.8765    7.4904   16.7645 H       1  UNL1        0.0000
     44 C           7.9821    5.0570   18.2222 C.3     1  UNL1        0.0000
     45 H           8.3439    5.7658   18.9604 H       1  UNL1        0.0000
     46 H           8.6095    4.1744   18.2832 H       1  UNL1        0.0000
     47 H           6.9765    4.7709   18.5106 H       1  UNL1        0.0000
     48 C          10.3718    3.8471   14.1530 C.3     1  UNL1        0.0000
     49 H          10.9319    4.1305   15.0356 H       1  UNL1        0.0000
     50 H          10.3025    4.7180   13.5103 H       1  UNL1        0.0000
     51 H          10.9538    3.0980   13.6262 H       1  UNL1        0.0000
     52 C           8.8484    1.8537   15.9801 C.3     1  UNL1        0.0000
     53 H           9.5880    1.1135   15.6908 H       1  UNL1        0.0000
     54 H           7.9185    1.3302   16.1790 H       1  UNL1        0.0000
     55 H           9.1837    2.3032   16.9086 H       1  UNL1        0.0000
     56 C           7.9995    2.2996   13.0195 C.3     1  UNL1        0.0000
     57 H           8.7681    1.6847   12.5603 H       1  UNL1        0.0000
     58 H           7.6816    3.0312   12.2785 H       1  UNL1        0.0000
     59 H           7.1504    1.6560   13.2340 H       1  UNL1        0.0000
     60 C           3.8992    1.7939   16.5761 C.3     1  UNL1        0.0000
     61 H           3.2315    1.0781   16.0879 H       1  UNL1        0.0000
     62 C           3.7129    4.3700   18.3719 C.3     1  UNL1        0.0000
     63 H           4.6502    4.7575   17.9844 H       1  UNL1        0.0000
     64 H           3.9304    3.8058   19.2724 H       1  UNL1        0.0000
     65 H           3.1002    5.2195   18.6567 H       1  UNL1        0.0000
     66 C           1.2177    2.5811   17.8510 C.3     1  UNL1        0.0000
     67 H           1.4175    2.0501   18.7733 H       1  UNL1        0.0000
     68 H           0.7174    1.8923   17.1774 H       1  UNL1        0.0000
     69 H           0.5171    3.3777   18.0779 H       1  UNL1        0.0000
     70 C           2.2058    4.4222   15.6529 C.3     1  UNL1        0.0000
     71 H           1.8402    5.3633   16.0535 H       1  UNL1        0.0000
     72 H           1.3897    3.9657   15.1019 H       1  UNL1        0.0000
     73 H           2.9917    4.6594   14.9400 H       1  UNL1        0.0000
     74 C           6.2619    1.8322   18.5996 C.3     1  UNL1        0.0000
     75 H           7.1069    1.1984   18.8487 H       1  UNL1        0.0000
     76 H           6.0152    2.4056   19.4867 H       1  UNL1        0.0000
     77 H           6.5842    2.5301   17.8319 H       1  UNL1        0.0000
     78 C           5.3957   -0.8192   17.1978 C.3     1  UNL1        0.0000
     79 H           5.9611   -0.6299   16.2892 H       1  UNL1        0.0000
     80 H           4.5685   -1.4733   16.9382 H       1  UNL1        0.0000
     81 H           6.0398   -1.3665   17.8787 H       1  UNL1        0.0000
     82 C           3.6345    0.3694   19.4394 C.3     1  UNL1        0.0000
     83 H           4.1513   -0.2898   20.1291 H       1  UNL1        0.0000
     84 H           2.7367   -0.1424   19.1098 H       1  UNL1        0.0000
     85 H           3.3317    1.2500   19.9950 H       1  UNL1        0.0000
@<TRIPOS>BOND
     1    14    13    1
     2    17    15    1
     3    26    25    1
     4    13    15    1
     5    13    25    1
     6    13    10    1
     7    16    15    1
     8    27    25    1
     9    15    18    1
    10    25    23    1
    11    12    10    1
    12    11    10    1
    13    10     9    1
    14    22    20    1
    15    58    56    1
    16    18    19    1
    17    18    20    1
    18    18    31    1
    19    23    24    1
    20    23    20    1
    21    23    28    1
    22    57    56    1
    23    20    21    1
    24     9    31    1
    25     9    28    1
    26     9     8    1
    27    32    31    1
    28    56    59    1
    29    56     5    1
    30    29    28    1
    31    31    33    1
    32    28    30    1
    33     1     8    1
    34     1     2    1
    35    50    48    1
    36    51    48    1
    37     8     3    1
    38    48     5    1
    39    48    49    1
    40    35    34    1
    41     5    34    1
    42     5    52    1
    43    73    70    1
    44    34     2    1
    45    34     4    1
    46    72    70    1
    47    41    40    1
    48     3     2    1
    49     3    60    1
    50    39    36    1
    51    70    71    1
    52    70     6    1
    53    53    52    1
    54    52    54    1
    55    52    55    1
    56    61    60    1
    57    40    42    1
    58    40     4    1
    59    40    43    1
    60    79    78    1
    61    36     4    1
    62    36    38    1
    63    36    37    1
    64     4    44    1
    65    60     6    1
    66    60     7    1
    67    80    78    1
    68     6    66    1
    69     6    62    1
    70    68    66    1
    71    78    81    1
    72    78     7    1
    73    77    74    1
    74    66    69    1
    75    66    67    1
    76     7    74    1
    77     7    82    1
    78    63    62    1
    79    44    46    1
    80    44    47    1
    81    44    45    1
    82    62    65    1
    83    62    64    1
    84    74    75    1
    85    74    76    1
    86    84    82    1
    87    82    85    1
    88    82    83    1
