@<TRIPOS>MOLECULE
1
 61 61 0 0 0
SMALL
GASTEIGER

@<TRIPOS>ATOM
      1 P           2.2683    7.0349    9.5154 P.3     1  UNL1        0.0000
      2 SI          1.6944    6.0980   12.3429 Si      1  UNL1        0.0000
      3 SI          2.5561    3.9890    9.9629 Si      1  UNL1        0.0000
      4 N           0.6047    7.0402    9.5041 N.2     1  UNL1        0.0000
      5 N          -1.3144    8.2866    9.2440 N.pl3   1  UNL1        0.0000
      6 C           2.6612    5.7470   10.7282 C.3     1  UNL1        0.0000
      7 H           3.7182    5.9106   10.9570 H       1  UNL1        0.0000
      8 C           0.0053    5.2068   12.3318 C.3     1  UNL1        0.0000
      9 H           0.1150    4.1454   12.5228 H       1  UNL1        0.0000
     10 H          -0.4883    5.3201   11.3740 H       1  UNL1        0.0000
     11 H          -0.6491    5.6070   13.1001 H       1  UNL1        0.0000
     12 C           2.7583    5.4906   13.8050 C.3     1  UNL1        0.0000
     13 H           3.7014    6.0252   13.8589 H       1  UNL1        0.0000
     14 H           2.9828    4.4332   13.7302 H       1  UNL1        0.0000
     15 H           2.2392    5.6498   14.7439 H       1  UNL1        0.0000
     16 C           1.3739    7.9554   12.6380 C.3     1  UNL1        0.0000
     17 H           0.9017    8.1211   13.6026 H       1  UNL1        0.0000
     18 H           0.7233    8.3724   11.8760 H       1  UNL1        0.0000
     19 H           2.3002    8.5237   12.6294 H       1  UNL1        0.0000
     20 C           0.9064    3.6990    9.0445 C.3     1  UNL1        0.0000
     21 H           1.0534    3.0990    8.1515 H       1  UNL1        0.0000
     22 H           0.4628    4.6423    8.7459 H       1  UNL1        0.0000
     23 H           0.1928    3.1768    9.6740 H       1  UNL1        0.0000
     24 C           4.1060    3.6534    8.8849 C.3     1  UNL1        0.0000
     25 H           4.8969    3.2099    9.4831 H       1  UNL1        0.0000
     26 H           4.5026    4.5590    8.4388 H       1  UNL1        0.0000
     27 H           3.8847    2.9575    8.0808 H       1  UNL1        0.0000
     28 C           2.6745    2.6862   11.3559 C.3     1  UNL1        0.0000
     29 H           1.8434    2.7312   12.0490 H       1  UNL1        0.0000
     30 H           3.5888    2.7968   11.9283 H       1  UNL1        0.0000
     31 H           2.6842    1.6926   10.9212 H       1  UNL1        0.0000
     32 C           2.2830    6.6503    6.9837 C.2     1  UNL1        0.0000
     33 C           0.0018    8.1593    9.2872 C.2     1  UNL1        0.0000
     34 H           0.5519    9.0923    9.1089 H       1  UNL1        0.0000
     35 C          -2.2023    7.1913    9.5645 C.3     1  UNL1        0.0000
     36 H          -1.6173    6.2718    9.5610 H       1  UNL1        0.0000
     37 H          -2.9755    7.1308    8.7911 H       1  UNL1        0.0000
     38 C          -2.8443    7.4376   10.9301 C.3     1  UNL1        0.0000
     39 H          -2.0623    7.4422   11.6914 H       1  UNL1        0.0000
     40 H          -3.5405    6.6302   11.1587 H       1  UNL1        0.0000
     41 C          -3.5674    8.7829   10.9282 C.3     1  UNL1        0.0000
     42 H          -4.3941    8.7523   10.2143 H       1  UNL1        0.0000
     43 H          -3.9852    8.9841   11.9155 H       1  UNL1        0.0000
     44 C          -2.5990    9.8966   10.5352 C.3     1  UNL1        0.0000
     45 H          -1.8126    9.9828   11.2879 H       1  UNL1        0.0000
     46 H          -3.1194   10.8529   10.4756 H       1  UNL1        0.0000
     47 C          -1.9607    9.5758    9.1818 C.3     1  UNL1        0.0000
     48 H          -2.7343    9.5417    8.4065 H       1  UNL1        0.0000
     49 H          -1.2274   10.3362    8.9083 H       1  UNL1        0.0000
     50 C           2.6198    5.7797    5.7950 C.3     1  UNL1        0.0000
     51 H           3.1899    4.9187    6.1531 H       1  UNL1        0.0000
     52 C           1.3052    5.3047    5.1714 C.3     1  UNL1        0.0000
     53 H           0.7312    4.7205    5.8870 H       1  UNL1        0.0000
     54 H           1.5093    4.6881    4.2993 H       1  UNL1        0.0000
     55 H           0.7115    6.1626    4.8644 H       1  UNL1        0.0000
     56 C           3.4457    6.5902    4.7973 C.3     1  UNL1        0.0000
     57 H           3.6286    6.0055    3.8991 H       1  UNL1        0.0000
     58 H           4.4024    6.8704    5.2314 H       1  UNL1        0.0000
     59 H           2.9104    7.4974    4.5273 H       1  UNL1        0.0000
     60 O           2.5593    6.0887    8.1525 O.3     1  UNL1        0.0000
     61 O           1.7862    7.7485    6.9151 O.2     1  UNL1        0.0000
@<TRIPOS>BOND
     1    57    56    1
     2    54    52    1
     3    59    56    1
     4    56    58    1
     5    56    50    1
     6    55    52    1
     7    52    50    1
     8    52    53    1
     9    50    51    1
    10    50    32    1
    11    61    32    2
    12    32    60    1
    13    27    24    1
    14    21    20    1
    15    60     1    1
    16    48    47    1
    17    26    24    1
    18    22    20    1
    19    37    35    1
    20    24    25    1
    21    24     3    1
    22    49    47    1
    23    20    23    1
    24    20     3    1
    25    34    33    1
    26    47     5    1
    27    47    44    1
    28     5    33    1
    29     5    35    1
    30    33     4    2
    31     4     1    1
    32     1     6    1
    33    36    35    1
    34    35    38    1
    35     3     6    1
    36     3    28    1
    37    42    41    1
    38    46    44    1
    39    44    41    1
    40    44    45    1
    41     6     7    1
    42     6     2    1
    43    31    28    1
    44    41    38    1
    45    41    43    1
    46    38    40    1
    47    38    39    1
    48    28    30    1
    49    28    29    1
    50    10     8    1
    51    18    16    1
    52     8     2    1
    53     8     9    1
    54     8    11    1
    55     2    16    1
    56     2    12    1
    57    19    16    1
    58    16    17    1
    59    14    12    1
    60    12    13    1
    61    12    15    1
