@<TRIPOS>MOLECULE
1
 55 56 0 0 0
SMALL
GASTEIGER

@<TRIPOS>ATOM
      1 P           4.3777    2.1552    3.4345 P.3     1  UNL1        0.0000
      2 SI          1.9562    0.3094    2.5103 Si      1  UNL1        0.0000
      3 SI          4.2695   -0.6864    4.6746 Si      1  UNL1        0.0000
      4 O           2.5178    3.5163    4.7221 O.2     1  UNL1        0.0000
      5 N           3.2937    3.1421    2.6096 N.2     1  UNL1        0.0000
      6 C           2.4759    3.7300    3.4014 C.2     1  UNL1        0.0000
      7 C           3.6272    2.7033    5.0857 C.3     1  UNL1        0.0000
      8 H           3.2396    1.8337    5.6296 H       1  UNL1        0.0000
      9 C           3.7548    0.4467    3.1965 C.3     1  UNL1        0.0000
     10 H           4.3805    0.1003    2.3645 H       1  UNL1        0.0000
     11 C           1.8403    1.0764    0.7692 C.3     1  UNL1        0.0000
     12 H           0.8277    1.0062    0.3816 H       1  UNL1        0.0000
     13 H           2.4949    0.5624    0.0709 H       1  UNL1        0.0000
     14 H           2.1254    2.1227    0.7748 H       1  UNL1        0.0000
     15 C           1.5734   -1.5483    2.2924 C.3     1  UNL1        0.0000
     16 H           1.5742   -2.0952    3.2280 H       1  UNL1        0.0000
     17 H           2.2884   -2.0246    1.6303 H       1  UNL1        0.0000
     18 H           0.5921   -1.6673    1.8456 H       1  UNL1        0.0000
     19 C           0.6355    1.0656    3.6673 C.3     1  UNL1        0.0000
     20 H          -0.2574    0.4478    3.6758 H       1  UNL1        0.0000
     21 H           0.3419    2.0541    3.3267 H       1  UNL1        0.0000
     22 H           0.9755    1.1608    4.6930 H       1  UNL1        0.0000
     23 C           5.7239    0.0369    5.6826 C.3     1  UNL1        0.0000
     24 H           6.4440   -0.7385    5.9271 H       1  UNL1        0.0000
     25 H           5.3931    0.4752    6.6195 H       1  UNL1        0.0000
     26 H           6.2547    0.8049    5.1236 H       1  UNL1        0.0000
     27 C           4.8242   -2.3512    3.9315 C.3     1  UNL1        0.0000
     28 H           5.0666   -3.0571    4.7193 H       1  UNL1        0.0000
     29 H           5.7104   -2.2344    3.3154 H       1  UNL1        0.0000
     30 H           4.0522   -2.7997    3.3162 H       1  UNL1        0.0000
     31 C           2.8254   -0.9933    5.8903 C.3     1  UNL1        0.0000
     32 H           1.9163   -1.2864    5.3776 H       1  UNL1        0.0000
     33 H           2.5910   -0.1257    6.5002 H       1  UNL1        0.0000
     34 H           3.0913   -1.7967    6.5703 H       1  UNL1        0.0000
     35 C           1.4584    4.6577    2.9192 C.ar    1  UNL1        0.0000
     36 C           1.4822    5.0731    1.5883 C.ar    1  UNL1        0.0000
     37 H           2.2680    4.7108    0.9443 H       1  UNL1        0.0000
     38 C           0.5181    5.9444    1.1209 C.ar    1  UNL1        0.0000
     39 H           0.5394    6.2683    0.0913 H       1  UNL1        0.0000
     40 C          -0.4747    6.4054    1.9724 C.ar    1  UNL1        0.0000
     41 H          -1.2275    7.0865    1.6042 H       1  UNL1        0.0000
     42 C          -0.5010    5.9960    3.2965 C.ar    1  UNL1        0.0000
     43 H          -1.2744    6.3571    3.9582 H       1  UNL1        0.0000
     44 C           0.4616    5.1269    3.7734 C.ar    1  UNL1        0.0000
     45 H           0.4489    4.7999    4.8018 H       1  UNL1        0.0000
     46 C           4.5929    3.4880    5.9845 C.3     1  UNL1        0.0000
     47 H           5.5297    2.9210    6.0218 H       1  UNL1        0.0000
     48 C           4.0251    3.6082    7.3975 C.3     1  UNL1        0.0000
     49 H           3.0622    4.1137    7.3714 H       1  UNL1        0.0000
     50 H           4.7007    4.1821    8.0269 H       1  UNL1        0.0000
     51 H           3.8893    2.6257    7.8454 H       1  UNL1        0.0000
     52 C           4.8776    4.8687    5.4002 C.3     1  UNL1        0.0000
     53 H           3.9802    5.4844    5.4189 H       1  UNL1        0.0000
     54 H           5.2203    4.7824    4.3684 H       1  UNL1        0.0000
     55 H           5.6517    5.3680    5.9779 H       1  UNL1        0.0000
@<TRIPOS>BOND
     1    13    11    1
     2    39    38    1
     3    12    11    1
     4    11    14    1
     5    11     2    1
     6    37    36    1
     7    38    36   ar
     8    38    40   ar
     9    36    35   ar
    10    41    40    1
    11    17    15    1
    12    18    15    1
    13    40    42   ar
    14    15     2    1
    15    15    16    1
    16    10     9    1
    17     2     9    1
    18     2    19    1
    19     5     6    2
    20     5     1    1
    21    35     6    1
    22    35    44   ar
    23     9     1    1
    24     9     3    1
    25    42    44   ar
    26    42    43    1
    27    29    27    1
    28    30    27    1
    29    21    19    1
    30     6     4    1
    31     1     7    1
    32    19    20    1
    33    19    22    1
    34    44    45    1
    35    27     3    1
    36    27    28    1
    37    54    52    1
    38     3    23    1
    39     3    31    1
    40     4     7    1
    41     7     8    1
    42     7    46    1
    43    26    23    1
    44    32    31    1
    45    52    53    1
    46    52    55    1
    47    52    46    1
    48    23    24    1
    49    23    25    1
    50    31    33    1
    51    31    34    1
    52    46    47    1
    53    46    48    1
    54    49    48    1
    55    48    51    1
    56    48    50    1
