@<TRIPOS>MOLECULE
3
 61 62 0 0 0
SMALL
GASTEIGER

@<TRIPOS>ATOM
      1 SI         11.6366    7.5776    7.8675 Si      1  UNL1        0.0000
      2 SI          8.4179    6.9081    8.1788 Si      1  UNL1        0.0000
      3 P           9.5496    9.3009    6.5340 P.3     1  UNL1        0.0000
      4 N          10.0988   10.2354    7.7955 N.2     1  UNL1        0.0000
      5 N          10.1919   12.2241    8.9360 N.pl3   1  UNL1        0.0000
      6 C           9.8615    7.6112    7.1280 C.3     1  UNL1        0.0000
      7 H           9.8917    7.0140    6.2103 H       1  UNL1        0.0000
      8 C           7.0057    6.4118    6.9894 C.3     1  UNL1        0.0000
      9 H           6.1021    6.1593    7.5366 H       1  UNL1        0.0000
     10 H           7.2868    5.5357    6.4113 H       1  UNL1        0.0000
     11 H           6.7594    7.2009    6.2866 H       1  UNL1        0.0000
     12 C           7.8415    8.1472    9.5118 C.3     1  UNL1        0.0000
     13 H           7.8921    9.1684    9.1483 H       1  UNL1        0.0000
     14 H           8.4547    8.0778   10.4047 H       1  UNL1        0.0000
     15 H           6.8141    7.9535    9.8049 H       1  UNL1        0.0000
     16 C           8.9353    5.2945    9.0559 C.3     1  UNL1        0.0000
     17 H           9.7420    5.4440    9.7636 H       1  UNL1        0.0000
     18 H           9.2541    4.5416    8.3434 H       1  UNL1        0.0000
     19 H           8.0915    4.8861    9.6019 H       1  UNL1        0.0000
     20 C          11.5759    7.9647    9.7383 C.3     1  UNL1        0.0000
     21 H          12.5495    8.2819   10.0983 H       1  UNL1        0.0000
     22 H          11.2867    7.0933   10.3153 H       1  UNL1        0.0000
     23 H          10.8657    8.7549    9.9505 H       1  UNL1        0.0000
     24 C          12.8525    8.7916    7.0434 C.3     1  UNL1        0.0000
     25 H          12.4848    9.8100    7.0994 H       1  UNL1        0.0000
     26 H          13.0120    8.5542    5.9958 H       1  UNL1        0.0000
     27 H          13.8219    8.7589    7.5334 H       1  UNL1        0.0000
     28 C          12.3277    5.8209    7.5880 C.3     1  UNL1        0.0000
     29 H          12.4148    5.5910    6.5309 H       1  UNL1        0.0000
     30 H          11.7028    5.0599    8.0406 H       1  UNL1        0.0000
     31 H          13.3174    5.7337    8.0226 H       1  UNL1        0.0000
     32 C           7.7937    9.5380    6.5840 C.1     1  UNL1        0.0000
     33 C           6.6677    9.9809    6.5027 C.1     1  UNL1        0.0000
     34 C           5.3125   10.3764    6.4440 C.ar    1  UNL1        0.0000
     35 C           4.3206    9.5725    7.0082 C.ar    1  UNL1        0.0000
     36 H           4.6015    8.6476    7.4903 H       1  UNL1        0.0000
     37 C           2.9979    9.9639    6.9396 C.ar    1  UNL1        0.0000
     38 H           2.2307    9.3391    7.3733 H       1  UNL1        0.0000
     39 C           2.6523   11.1531    6.3165 C.ar    1  UNL1        0.0000
     40 H           1.6164   11.4544    6.2652 H       1  UNL1        0.0000
     41 C           3.6352   11.9544    5.7572 C.ar    1  UNL1        0.0000
     42 H           3.3653   12.8799    5.2698 H       1  UNL1        0.0000
     43 C           4.9615   11.5728    5.8168 C.ar    1  UNL1        0.0000
     44 H           5.7328   12.1891    5.3782 H       1  UNL1        0.0000
     45 C           9.6175   11.3978    8.0668 C.2     1  UNL1        0.0000
     46 H           8.7056   11.7957    7.6075 H       1  UNL1        0.0000
     47 C          11.3810   11.8550    9.6716 C.3     1  UNL1        0.0000
     48 H          12.1308   12.6426    9.5368 H       1  UNL1        0.0000
     49 H          11.7587   10.9217    9.2549 H       1  UNL1        0.0000
     50 C          11.0485   11.7047   11.1559 C.3     1  UNL1        0.0000
     51 H          11.9567   11.4678   11.7105 H       1  UNL1        0.0000
     52 H          10.3461   10.8786   11.2826 H       1  UNL1        0.0000
     53 C          10.4206   12.9937   11.6813 C.3     1  UNL1        0.0000
     54 H          10.1409   12.8758   12.7292 H       1  UNL1        0.0000
     55 H          11.1481   13.8062   11.6174 H       1  UNL1        0.0000
     56 C           9.1900   13.3478   10.8492 C.3     1  UNL1        0.0000
     57 H           8.4325   12.5699   10.9664 H       1  UNL1        0.0000
     58 H           8.7620   14.2941   11.1819 H       1  UNL1        0.0000
     59 C           9.5756   13.4524    9.3716 C.3     1  UNL1        0.0000
     60 H           8.6977   13.6558    8.7552 H       1  UNL1        0.0000
     61 H          10.2927   14.2712    9.2379 H       1  UNL1        0.0000
@<TRIPOS>BOND
     1    42    41    1
     2    44    43    1
     3    41    43   ar
     4    41    39   ar
     5    43    34   ar
     6    26    24    1
     7     7     6    1
     8    40    39    1
     9    11     8    1
    10    39    37   ar
    11    10     8    1
    12    34    33    1
    13    34    35   ar
    14    33    32    3
    15    29    28    1
    16     3    32    1
    17     3     6    1
    18     3     4    1
    19    37    35   ar
    20    37    38    1
    21     8     9    1
    22     8     2    1
    23    35    36    1
    24    24    25    1
    25    24    27    1
    26    24     1    1
    27     6     1    1
    28     6     2    1
    29    28     1    1
    30    28    31    1
    31    28    30    1
    32    46    45    1
    33     4    45    2
    34     1    20    1
    35    45     5    1
    36     2    16    1
    37     2    12    1
    38    18    16    1
    39    60    59    1
    40     5    59    1
    41     5    47    1
    42    16    19    1
    43    16    17    1
    44    13    12    1
    45    61    59    1
    46    49    47    1
    47    59    56    1
    48    12    15    1
    49    12    14    1
    50    48    47    1
    51    47    50    1
    52    20    23    1
    53    20    21    1
    54    20    22    1
    55    56    57    1
    56    56    58    1
    57    56    53    1
    58    50    52    1
    59    50    53    1
    60    50    51    1
    61    55    53    1
    62    53    54    1
