@<TRIPOS>MOLECULE
1
 90 90 0 0 0
SMALL
GASTEIGER

@<TRIPOS>ATOM
      1 P           5.2587    4.4742    3.7911 P.3     1  UNL1        0.0000
      2 N           5.7846    4.5885    5.3923 N.3     1  UNL1        0.0000
      3 SI          4.9429    5.6249    6.5670 Si      1  UNL1        0.0000
      4 C           5.5119    5.2220    8.3328 C.3     1  UNL1        0.0000
      5 H           5.1613    4.2548    8.6706 H       1  UNL1        0.0000
      6 H           5.1212    5.9708    9.0139 H       1  UNL1        0.0000
      7 H           6.5918    5.2328    8.4106 H       1  UNL1        0.0000
      8 C           5.3666    7.4611    6.2633 C.3     1  UNL1        0.0000
      9 H           5.4837    7.6893    5.2091 H       1  UNL1        0.0000
     10 H           6.2878    7.7395    6.7671 H       1  UNL1        0.0000
     11 H           4.5799    8.1005    6.6512 H       1  UNL1        0.0000
     12 C           3.0775    5.2575    6.4055 C.3     1  UNL1        0.0000
     13 H           2.7841    4.4000    7.0037 H       1  UNL1        0.0000
     14 H           2.7991    5.0505    5.3748 H       1  UNL1        0.0000
     15 H           2.4874    6.1041    6.7405 H       1  UNL1        0.0000
     16 N           6.9057    3.8154    5.8158 N.3     1  UNL1        0.0000
     17 SI          8.4864    4.5580    5.5665 Si      1  UNL1        0.0000
     18 C           9.2693    5.0965    7.2215 C.3     1  UNL1        0.0000
     19 H           8.7259    5.9121    7.6884 H       1  UNL1        0.0000
     20 H          10.2844    5.4405    7.0508 H       1  UNL1        0.0000
     21 H           9.3176    4.2798    7.9317 H       1  UNL1        0.0000
     22 C           8.2965    6.1230    4.4997 C.3     1  UNL1        0.0000
     23 H           7.4783    6.0267    3.7903 H       1  UNL1        0.0000
     24 H           9.1989    6.3226    3.9309 H       1  UNL1        0.0000
     25 H           8.0938    6.9966    5.1096 H       1  UNL1        0.0000
     26 C           9.6495    3.3145    4.7088 C.3     1  UNL1        0.0000
     27 H           9.1428    2.7491    3.9342 H       1  UNL1        0.0000
     28 H          10.0570    2.6082    5.4239 H       1  UNL1        0.0000
     29 H          10.4886    3.8296    4.2515 H       1  UNL1        0.0000
     30 SI          6.6390    2.2306    6.5532 Si      1  UNL1        0.0000
     31 C           7.4252    2.1515    8.2913 C.3     1  UNL1        0.0000
     32 H           8.5035    2.0600    8.2190 H       1  UNL1        0.0000
     33 H           7.0645    1.2702    8.8121 H       1  UNL1        0.0000
     34 H           7.2057    3.0107    8.9123 H       1  UNL1        0.0000
     35 C           4.7624    1.9266    6.6683 C.3     1  UNL1        0.0000
     36 H           4.2439    2.3849    5.8338 H       1  UNL1        0.0000
     37 H           4.3395    2.3329    7.5802 H       1  UNL1        0.0000
     38 H           4.5428    0.8641    6.6517 H       1  UNL1        0.0000
     39 C           7.4461    0.7651    5.6279 C.3     1  UNL1        0.0000
     40 H           7.1921    0.7261    4.5745 H       1  UNL1        0.0000
     41 H           7.1218   -0.1683    6.0795 H       1  UNL1        0.0000
     42 H           8.5268    0.8004    5.7062 H       1  UNL1        0.0000
     43 P           6.0700    2.7231    3.1434 P.3     1  UNL1        0.0000
     44 C           5.3095    2.7081    1.4648 C.ar    1  UNL1        0.0000
     45 C           6.0367    3.1675    0.3478 C.ar    1  UNL1        0.0000
     46 C           5.3429    3.4360   -0.8252 C.ar    1  UNL1        0.0000
     47 H           5.8774    3.8227   -1.6706 H       1  UNL1        0.0000
     48 C           3.9736    3.2652   -0.9346 C.ar    1  UNL1        0.0000
     49 C           3.3301    2.6330    0.1174 C.ar    1  UNL1        0.0000
     50 H           2.2844    2.4070    0.0080 H       1  UNL1        0.0000
     51 C           3.9735    2.2842    1.2964 C.ar    1  UNL1        0.0000
     52 C           7.5636    3.3080    0.3405 C.3     1  UNL1        0.0000
     53 C           8.1920    1.9947    0.8275 C.3     1  UNL1        0.0000
     54 H           7.8810    1.7521    1.8414 H       1  UNL1        0.0000
     55 H           9.2773    2.0734    0.8155 H       1  UNL1        0.0000
     56 H           7.8960    1.1762    0.1741 H       1  UNL1        0.0000
     57 C           8.0335    4.4779    1.2127 C.3     1  UNL1        0.0000
     58 H           7.8707    4.2744    2.2683 H       1  UNL1        0.0000
     59 H           7.5000    5.3889    0.9451 H       1  UNL1        0.0000
     60 H           9.0983    4.6474    1.0645 H       1  UNL1        0.0000
     61 C           8.1233    3.5569   -1.0692 C.3     1  UNL1        0.0000
     62 H           7.8051    2.7855   -1.7669 H       1  UNL1        0.0000
     63 H           9.2107    3.5354   -1.0233 H       1  UNL1        0.0000
     64 H           7.8315    4.5331   -1.4490 H       1  UNL1        0.0000
     65 C           3.1839    3.6695   -2.1689 C.3     1  UNL1        0.0000
     66 C           4.0445    4.3926   -3.2086 C.3     1  UNL1        0.0000
     67 H           4.5084    5.2767   -2.7782 H       1  UNL1        0.0000
     68 H           3.4174    4.7109   -4.0393 H       1  UNL1        0.0000
     69 H           4.8174    3.7382   -3.6058 H       1  UNL1        0.0000
     70 C           2.5922    2.4117   -2.8212 C.3     1  UNL1        0.0000
     71 H           2.0522    2.6786   -3.7273 H       1  UNL1        0.0000
     72 H           1.9029    1.9048   -2.1513 H       1  UNL1        0.0000
     73 H           3.3862    1.7154   -3.0844 H       1  UNL1        0.0000
     74 C           2.0537    4.6193   -1.7497 C.3     1  UNL1        0.0000
     75 H           2.4691    5.5210   -1.3039 H       1  UNL1        0.0000
     76 H           1.3903    4.1580   -1.0236 H       1  UNL1        0.0000
     77 H           1.4628    4.9057   -2.6175 H       1  UNL1        0.0000
     78 C           3.2061    1.3874    2.2787 C.3     1  UNL1        0.0000
     79 C           2.4542    2.2203    3.3229 C.3     1  UNL1        0.0000
     80 H           3.1411    2.8525    3.8860 H       1  UNL1        0.0000
     81 H           1.9364    1.5650    4.0209 H       1  UNL1        0.0000
     82 H           1.7192    2.8609    2.8415 H       1  UNL1        0.0000
     83 C           2.1634    0.5356    1.5288 C.3     1  UNL1        0.0000
     84 H           1.3142    1.1257    1.1949 H       1  UNL1        0.0000
     85 H           1.7728   -0.2282    2.1982 H       1  UNL1        0.0000
     86 H           2.6122    0.0410    0.6704 H       1  UNL1        0.0000
     87 C           4.1384    0.3894    2.9806 C.3     1  UNL1        0.0000
     88 H           4.7053    0.8565    3.7826 H       1  UNL1        0.0000
     89 H           4.8342   -0.0472    2.2665 H       1  UNL1        0.0000
     90 H           3.5535   -0.4138    3.4247 H       1  UNL1        0.0000
@<TRIPOS>BOND
     1    68    66    1
     2    71    70    1
     3    69    66    1
     4    66    67    1
     5    66    65    1
     6    73    70    1
     7    70    65    1
     8    70    72    1
     9    77    74    1
    10    65    74    1
    11    65    48    1
    12    62    61    1
    13    74    75    1
    14    74    76    1
    15    47    46    1
    16    64    61    1
    17    61    63    1
    18    61    52    1
    19    48    46   ar
    20    48    49   ar
    21    46    45   ar
    22    50    49    1
    23    49    51   ar
    24    56    53    1
    25    52    45    1
    26    52    53    1
    27    52    57    1
    28    45    44   ar
    29    86    83    1
    30    55    53    1
    31    53    54    1
    32    59    57    1
    33    60    57    1
    34    84    83    1
    35    57    58    1
    36    51    44   ar
    37    51    78    1
    38    44    43    1
    39    83    85    1
    40    83    78    1
    41    89    87    1
    42    78    87    1
    43    78    79    1
    44    82    79    1
    45    87    90    1
    46    87    88    1
    47    43     1    1
    48    79    80    1
    49    79    81    1
    50    23    22    1
    51     1     2    1
    52    24    22    1
    53    27    26    1
    54    29    26    1
    55    22    25    1
    56    22    17    1
    57    40    39    1
    58    26    28    1
    59    26    17    1
    60     9     8    1
    61    14    12    1
    62     2    16    1
    63     2     3    1
    64    17    16    1
    65    17    18    1
    66    39    42    1
    67    39    41    1
    68    39    30    1
    69    16    30    1
    70    36    35    1
    71     8     3    1
    72     8    11    1
    73     8    10    1
    74    12     3    1
    75    12    15    1
    76    12    13    1
    77    30    35    1
    78    30    31    1
    79     3     4    1
    80    38    35    1
    81    35    37    1
    82    20    18    1
    83    18    19    1
    84    18    21    1
    85    32    31    1
    86    31    33    1
    87    31    34    1
    88     4     7    1
    89     4     5    1
    90     4     6    1
