@<TRIPOS>MOLECULE
1
 62 64 0 0 0
SMALL
GASTEIGER

@<TRIPOS>ATOM
      1 P           4.7596   -0.4999    3.9862 P.3     1  UNL1        0.0000
      2 SI          3.1717    2.2699    3.8121 Si      1  UNL1        0.0000
      3 SI          3.8167   -2.4055    6.3559 Si      1  UNL1        0.0000
      4 N           2.2504    1.6448    2.4956 N.pl3   1  UNL1        0.0000
      5 N           2.4999   -2.5296    5.2495 N.pl3   1  UNL1        0.0000
      6 C           3.6695    0.7152    4.8065 C.3     1  UNL1        0.0000
      7 C           5.2453   -1.5296    5.4353 C.3     1  UNL1        0.0000
      8 C           4.6604    3.3462    3.2867 C.3     1  UNL1        0.0000
      9 C           2.0824    3.2769    5.0221 C.3     1  UNL1        0.0000
     10 C           3.3650   -1.3836    7.9055 C.3     1  UNL1        0.0000
     11 C           4.4584   -4.1188    6.9283 C.3     1  UNL1        0.0000
     12 C           1.6039    2.2816    1.4567 C.ar    1  UNL1        0.0000
     13 C           1.1362    1.5278    0.3781 C.ar    1  UNL1        0.0000
     14 C           0.4607    2.1319   -0.6630 C.ar    1  UNL1        0.0000
     15 C           0.2357    3.4992   -0.6537 C.ar    1  UNL1        0.0000
     16 C           0.7020    4.2546    0.4091 C.ar    1  UNL1        0.0000
     17 C           1.3805    3.6568    1.4537 C.ar    1  UNL1        0.0000
     18 C           6.2870    0.4997    3.7824 C.ar    1  UNL1        0.0000
     19 C           6.8175    0.6505    2.5072 C.ar    1  UNL1        0.0000
     20 C           7.9684    1.3891    2.2975 C.ar    1  UNL1        0.0000
     21 C           8.6049    1.9947    3.3673 C.ar    1  UNL1        0.0000
     22 C           8.0753    1.8669    4.6408 C.ar    1  UNL1        0.0000
     23 C           6.9252    1.1274    4.8476 C.ar    1  UNL1        0.0000
     24 C           1.2145   -3.0050    5.4270 C.ar    1  UNL1        0.0000
     25 C           0.8453   -3.7186    6.5650 C.ar    1  UNL1        0.0000
     26 C          -0.4440   -4.1955    6.7043 C.ar    1  UNL1        0.0000
     27 C          -1.3885   -3.9737    5.7164 C.ar    1  UNL1        0.0000
     28 C          -1.0299   -3.2624    4.5830 C.ar    1  UNL1        0.0000
     29 C           0.2557   -2.7811    4.4374 C.ar    1  UNL1        0.0000
     30 H           2.3946    0.6556    2.3080 H       1  UNL1        0.0000
     31 H           2.7621    0.1744    5.0778 H       1  UNL1        0.0000
     32 H           4.1681    1.0176    5.7281 H       1  UNL1        0.0000
     33 H           5.9804   -2.2575    5.0914 H       1  UNL1        0.0000
     34 H           5.7592   -0.8808    6.1439 H       1  UNL1        0.0000
     35 H           5.2297    2.8586    2.5015 H       1  UNL1        0.0000
     36 H           4.3226    4.3029    2.9000 H       1  UNL1        0.0000
     37 H           5.3399    3.5463    4.1099 H       1  UNL1        0.0000
     38 H           2.5958    3.4704    5.9591 H       1  UNL1        0.0000
     39 H           1.8083    4.2385    4.6036 H       1  UNL1        0.0000
     40 H           1.1608    2.7516    5.2528 H       1  UNL1        0.0000
     41 H           4.1863   -1.3555    8.6156 H       1  UNL1        0.0000
     42 H           3.1026   -0.3589    7.6602 H       1  UNL1        0.0000
     43 H           2.5122   -1.8208    8.4140 H       1  UNL1        0.0000
     44 H           3.8643   -4.4980    7.7531 H       1  UNL1        0.0000
     45 H           4.4143   -4.8629    6.1376 H       1  UNL1        0.0000
     46 H           5.4874   -4.0656    7.2732 H       1  UNL1        0.0000
     47 H           2.6374   -2.1018    4.3325 H       1  UNL1        0.0000
     48 H           1.3245    0.4629    0.3714 H       1  UNL1        0.0000
     49 H           0.1064    1.5333   -1.4903 H       1  UNL1        0.0000
     50 H          -0.2940    3.9713   -1.4678 H       1  UNL1        0.0000
     51 H           0.5364    5.3227    0.4240 H       1  UNL1        0.0000
     52 H           1.7462    4.2479    2.2774 H       1  UNL1        0.0000
     53 H           6.2922    0.1966    1.6764 H       1  UNL1        0.0000
     54 H           8.3672    1.4973    1.2990 H       1  UNL1        0.0000
     55 H           9.5051    2.5705    3.2103 H       1  UNL1        0.0000
     56 H           8.5608    2.3488    5.4776 H       1  UNL1        0.0000
     57 H           6.5242    1.0532    5.8485 H       1  UNL1        0.0000
     58 H           1.5789   -3.8983    7.3344 H       1  UNL1        0.0000
     59 H          -0.7129   -4.7480    7.5934 H       1  UNL1        0.0000
     60 H          -2.3940   -4.3502    5.8295 H       1  UNL1        0.0000
     61 H          -1.7589   -3.0786    3.8070 H       1  UNL1        0.0000
     62 H           0.5349   -2.2203    3.5562 H       1  UNL1        0.0000
@<TRIPOS>BOND
     1    49    14    1
     2    50    15    1
     3    14    15   ar
     4    14    13   ar
     5    15    16   ar
     6    48    13    1
     7    13    12   ar
     8    16    51    1
     9    16    17   ar
    10    54    20    1
    11    17    12   ar
    12    17    52    1
    13    12     4    1
    14    53    19    1
    15    20    19   ar
    16    20    21   ar
    17    30     4    1
    18     4     2    1
    19    35     8    1
    20    19    18   ar
    21    36     8    1
    22    55    21    1
    23     8     2    1
    24     8    37    1
    25    21    22   ar
    26    62    29    1
    27    18     1    1
    28    18    23   ar
    29    61    28    1
    30     2     6    1
    31     2     9    1
    32     1     6    1
    33     1     7    1
    34    47     5    1
    35    29    28   ar
    36    29    24   ar
    37    28    27   ar
    38    39     9    1
    39    22    23   ar
    40    22    56    1
    41     6    31    1
    42     6    32    1
    43    23    57    1
    44     9    40    1
    45     9    38    1
    46    33     7    1
    47     5    24    1
    48     5     3    1
    49    24    25   ar
    50     7    34    1
    51     7     3    1
    52    27    60    1
    53    27    26   ar
    54    45    11    1
    55     3    11    1
    56     3    10    1
    57    25    26   ar
    58    25    58    1
    59    26    59    1
    60    11    46    1
    61    11    44    1
    62    42    10    1
    63    10    43    1
    64    10    41    1
