@<TRIPOS>MOLECULE
1
 31 30 0 0 0
SMALL
GASTEIGER

@<TRIPOS>ATOM
      1 P           3.0908   -0.9642    3.6677 P.3     1  UNL1       -0.0980
      2 C           3.7727   -1.7828    5.2133 C.3     1  UNL1       -0.0257
      3 C           2.7704   -2.7725    5.7942 C.3     1  UNL1       -0.0587
      4 C           4.1399   -0.7571    6.2802 C.3     1  UNL1       -0.0587
      5 C           2.8923   -2.4741    2.5569 C.3     1  UNL1       -0.0257
      6 C           2.3454   -2.1109    1.1785 C.3     1  UNL1       -0.0587
      7 C           4.0980   -3.3965    2.3982 C.3     1  UNL1       -0.0587
      8 C           4.6029   -0.0051    3.0885 C.3     1  UNL1       -0.0257
      9 C           5.9882   -0.5968    3.3488 C.3     1  UNL1       -0.0587
     10 C           4.4908    0.3826    1.6162 C.3     1  UNL1       -0.0587
     11 H           4.6793   -2.3184    4.9153 H       1  UNL1        0.0344
     12 H           3.1287   -3.1503    6.7512 H       1  UNL1        0.0236
     13 H           1.8246   -2.2630    5.9646 H       1  UNL1        0.0236
     14 H           2.6081   -3.6245    5.1375 H       1  UNL1        0.0236
     15 H           4.6003   -1.2581    7.1313 H       1  UNL1        0.0236
     16 H           4.8330   -0.0108    5.9037 H       1  UNL1        0.0236
     17 H           3.2476   -0.2421    6.6304 H       1  UNL1        0.0236
     18 H           2.1069   -3.0308    3.0847 H       1  UNL1        0.0344
     19 H           1.8332   -2.9670    0.7389 H       1  UNL1        0.0236
     20 H           1.6449   -1.2827    1.2503 H       1  UNL1        0.0236
     21 H           3.1445   -1.8200    0.5032 H       1  UNL1        0.0236
     22 H           3.7859   -4.2942    1.8638 H       1  UNL1        0.0236
     23 H           4.8768   -2.9191    1.8101 H       1  UNL1        0.0236
     24 H           4.5150   -3.7071    3.3518 H       1  UNL1        0.0236
     25 H           4.5073    0.9200    3.6718 H       1  UNL1        0.0344
     26 H           6.7287    0.1145    2.9841 H       1  UNL1        0.0236
     27 H           6.1843   -0.7600    4.4035 H       1  UNL1        0.0236
     28 H           6.1384   -1.5325    2.8189 H       1  UNL1        0.0236
     29 H           5.1322    1.2377    1.4129 H       1  UNL1        0.0236
     30 H           4.8009   -0.4363    0.9717 H       1  UNL1        0.0236
     31 H           3.4699    0.6653    1.3741 H       1  UNL1        0.0236
@<TRIPOS>BOND
     1    21     6    1
     2    19     6    1
     3    30    10    1
     4     6    20    1
     5     6     5    1
     6    31    10    1
     7    29    10    1
     8    10     8    1
     9    23     7    1
    10    22     7    1
    11     7     5    1
    12     7    24    1
    13     5    18    1
    14     5     1    1
    15    28     9    1
    16    26     9    1
    17     8     9    1
    18     8     1    1
    19     8    25    1
    20     9    27    1
    21     1     2    1
    22    11     2    1
    23    14     3    1
    24     2     3    1
    25     2     4    1
    26     3    13    1
    27     3    12    1
    28    16     4    1
    29     4    17    1
    30     4    15    1
