@<TRIPOS>MOLECULE
1
 13 12 0 0 0
SMALL
GASTEIGER

@<TRIPOS>ATOM
      1 P           7.4132    2.2133    9.6686 P.3     1  UNL1       -0.1154
      2 C           7.2268    3.9622    9.1277 C.3     1  UNL1       -0.0447
      3 C           5.8378    1.9744   10.5829 C.3     1  UNL1       -0.0447
      4 C           8.5412    2.4634   11.0944 C.3     1  UNL1       -0.0447
      5 H           7.1462    4.6169    9.9953 H       1  UNL1        0.0277
      6 H           6.3345    4.0684    8.5140 H       1  UNL1        0.0277
      7 H           8.0915    4.2505    8.5317 H       1  UNL1        0.0277
      8 H           5.9120    1.0569   11.1626 H       1  UNL1        0.0277
      9 H           5.0122    1.8764    9.8801 H       1  UNL1        0.0277
     10 H           5.6503    2.8178   11.2471 H       1  UNL1        0.0277
     11 H           8.0947    3.1689   11.7951 H       1  UNL1        0.0277
     12 H           9.4925    2.8572   10.7424 H       1  UNL1        0.0277
     13 H           8.7043    1.5100   11.5892 H       1  UNL1        0.0277
@<TRIPOS>BOND
     1     6     2    1
     2     7     2    1
     3     2     1    1
     4     2     5    1
     5     1     3    1
     6     1     4    1
     7     9     3    1
     8     3     8    1
     9     3    10    1
    10    12     4    1
    11     4    13    1
    12     4    11    1
