@<TRIPOS>MOLECULE
1
 13 12 0 0 0
SMALL
GASTEIGER

@<TRIPOS>ATOM
      1 P          10.0977    0.8632    8.0701 P.3     1  UNL1       -0.1154
      2 C          10.9764   -0.0945    6.7836 C.3     1  UNL1       -0.0447
      3 C          10.7950    2.5325    7.7831 C.3     1  UNL1       -0.0447
      4 C          11.0824    0.3499    9.5350 C.3     1  UNL1       -0.0447
      5 H          12.0524   -0.0076    6.9347 H       1  UNL1        0.0277
      6 H          10.7142    0.3041    5.8048 H       1  UNL1        0.0277
      7 H          10.6818   -1.1404    6.8458 H       1  UNL1        0.0277
      8 H          10.4644    3.2155    8.5640 H       1  UNL1        0.0277
      9 H          10.4361    2.8832    6.8163 H       1  UNL1        0.0277
     10 H          11.8835    2.4878    7.7689 H       1  UNL1        0.0277
     11 H          10.9484   -0.7162    9.6948 H       1  UNL1        0.0277
     12 H          10.7553    0.8841   10.4217 H       1  UNL1        0.0277
     13 H          12.1352    0.5622    9.3499 H       1  UNL1        0.0277
@<TRIPOS>BOND
     1     6     2    1
     2     2     7    1
     3     2     5    1
     4     2     1    1
     5     9     3    1
     6    10     3    1
     7     3     1    1
     8     3     8    1
     9     1     4    1
    10    13     4    1
    11     4    11    1
    12     4    12    1
