@<TRIPOS>MOLECULE
1
 49 50 0 0 0
SMALL
GASTEIGER

@<TRIPOS>ATOM
      1 P          -3.1105    7.9104   12.6231 P.3     1  UNL1        0.0000
      2 SI         -1.4417    6.0283   14.5012 Si      1  UNL1        0.0000
      3 SI         -1.9924    9.2537   15.1454 Si      1  UNL1        0.0000
      4 O          -1.7452    7.1072    9.9967 O.2     1  UNL1        0.0000
      5 N          -2.9405    6.4193   11.8981 N.2     1  UNL1        0.0000
      6 C          -2.3602    6.2091   10.7840 C.2     1  UNL1        0.0000
      7 C          -1.8583    8.4815   10.3191 C.3     1  UNL1        0.0000
      8 H          -2.8402    8.8447    9.9769 H       1  UNL1        0.0000
      9 H          -1.0842    8.9709    9.7192 H       1  UNL1        0.0000
     10 C          -1.6951    8.7812   11.8037 C.3     1  UNL1        0.0000
     11 H          -1.7177    9.8576   11.9613 H       1  UNL1        0.0000
     12 H          -0.7562    8.3690   12.1797 H       1  UNL1        0.0000
     13 C          -2.3154    4.8418   10.2472 C.ar    1  UNL1        0.0000
     14 C          -3.2540    3.9075   10.6819 C.ar    1  UNL1        0.0000
     15 H          -4.0026    4.2145   11.3950 H       1  UNL1        0.0000
     16 C          -3.2270    2.6188   10.1855 C.ar    1  UNL1        0.0000
     17 H          -3.9587    1.8988   10.5198 H       1  UNL1        0.0000
     18 C          -2.2658    2.2508    9.2567 C.ar    1  UNL1        0.0000
     19 H          -2.2463    1.2427    8.8700 H       1  UNL1        0.0000
     20 C          -1.3333    3.1777    8.8194 C.ar    1  UNL1        0.0000
     21 H          -0.5867    2.8915    8.0935 H       1  UNL1        0.0000
     22 C          -1.3569    4.4707    9.3074 C.ar    1  UNL1        0.0000
     23 H          -0.6346    5.1982    8.9708 H       1  UNL1        0.0000
     24 C          -2.5487    7.5988   14.3265 C.3     1  UNL1        0.0000
     25 H          -3.4814    7.3299   14.8365 H       1  UNL1        0.0000
     26 C          -0.8721    5.9244   16.3209 C.3     1  UNL1        0.0000
     27 H          -1.7188    5.8374   16.9932 H       1  UNL1        0.0000
     28 H          -0.2886    6.7820   16.6342 H       1  UNL1        0.0000
     29 H          -0.2568    5.0422   16.4607 H       1  UNL1        0.0000
     30 C           0.1228    6.0547   13.4047 C.3     1  UNL1        0.0000
     31 H           0.7311    6.9394   13.5648 H       1  UNL1        0.0000
     32 H          -0.1240    5.9963   12.3494 H       1  UNL1        0.0000
     33 H           0.7409    5.1925   13.6362 H       1  UNL1        0.0000
     34 C          -2.4493    4.4435   14.1591 C.3     1  UNL1        0.0000
     35 H          -2.2062    4.0212   13.1896 H       1  UNL1        0.0000
     36 H          -3.5155    4.6442   14.1627 H       1  UNL1        0.0000
     37 H          -2.2525    3.6852   14.9110 H       1  UNL1        0.0000
     38 C          -2.7816   10.8121   14.3657 C.3     1  UNL1        0.0000
     39 H          -3.3696   11.3554   15.0994 H       1  UNL1        0.0000
     40 H          -3.4480   10.5635   13.5432 H       1  UNL1        0.0000
     41 H          -2.0275   11.4974   13.9888 H       1  UNL1        0.0000
     42 C          -2.5360    9.1805   16.9711 C.3     1  UNL1        0.0000
     43 H          -2.1262    8.3189   17.4856 H       1  UNL1        0.0000
     44 H          -3.6172    9.1339   17.0592 H       1  UNL1        0.0000
     45 H          -2.2041   10.0675   17.5007 H       1  UNL1        0.0000
     46 C          -0.0977    9.4844   15.0423 C.3     1  UNL1        0.0000
     47 H           0.2461    9.6659   14.0289 H       1  UNL1        0.0000
     48 H           0.4395    8.6246   15.4258 H       1  UNL1        0.0000
     49 H           0.1943   10.3424   15.6395 H       1  UNL1        0.0000
@<TRIPOS>BOND
     1    21    20    1
     2    20    18   ar
     3    20    22   ar
     4    19    18    1
     5    23    22    1
     6    18    16   ar
     7    22    13   ar
     8     9     7    1
     9     8     7    1
    10     4     7    1
    11     4     6    1
    12    16    17    1
    13    16    14   ar
    14    13    14   ar
    15    13     6    1
    16     7    10    1
    17    14    15    1
    18     6     5    2
    19    10    11    1
    20    10    12    1
    21    10     1    1
    22     5     1    1
    23    32    30    1
    24     1    24    1
    25    35    34    1
    26    30    31    1
    27    30    33    1
    28    30     2    1
    29    40    38    1
    30    41    38    1
    31    47    46    1
    32    34    36    1
    33    34     2    1
    34    34    37    1
    35    24     2    1
    36    24    25    1
    37    24     3    1
    38    38    39    1
    39    38     3    1
    40     2    26    1
    41    46     3    1
    42    46    48    1
    43    46    49    1
    44     3    42    1
    45    26    29    1
    46    26    28    1
    47    26    27    1
    48    42    44    1
    49    42    43    1
    50    42    45    1
