@<TRIPOS>MOLECULE
1
 42 42 0 0 0
SMALL
GASTEIGER

@<TRIPOS>ATOM
      1 P           2.5354    1.4780   21.2458 P.3     1  UNL1        0.0000
      2 SI          0.1343   -0.5518   21.0640 Si      1  UNL1        0.0000
      3 SI          2.9901   -1.2187   22.6429 Si      1  UNL1        0.0000
      4 O           0.9722    3.9614   22.1433 O.2     1  UNL1        0.0000
      5 N           1.2104    2.2438   20.5654 N.2     1  UNL1        0.0000
      6 C           0.6502    3.2792   21.0363 C.2     1  UNL1        0.0000
      7 C           2.1342    3.5830   22.8630 C.3     1  UNL1        0.0000
      8 H           2.0222    4.0602   23.8415 H       1  UNL1        0.0000
      9 H           3.0161    4.0155   22.3658 H       1  UNL1        0.0000
     10 C           2.3058    2.0740   22.9856 C.3     1  UNL1        0.0000
     11 H           1.4059    1.6180   23.4045 H       1  UNL1        0.0000
     12 H           3.1627    1.8558   23.6191 H       1  UNL1        0.0000
     13 C          -0.5247    3.8840   20.3328 C.3     1  UNL1        0.0000
     14 H          -0.1806    4.7279   19.7367 H       1  UNL1        0.0000
     15 H          -1.2432    4.2526   21.0601 H       1  UNL1        0.0000
     16 H          -0.9819    3.1498   19.6779 H       1  UNL1        0.0000
     17 C           2.0323   -0.2730   21.2623 C.3     1  UNL1        0.0000
     18 H           2.4552   -0.6437   20.3211 H       1  UNL1        0.0000
     19 C          -0.2351   -2.4144   21.2638 C.3     1  UNL1        0.0000
     20 H          -1.2928   -2.5948   21.1046 H       1  UNL1        0.0000
     21 H           0.0157   -2.7948   22.2470 H       1  UNL1        0.0000
     22 H           0.3056   -3.0055   20.5328 H       1  UNL1        0.0000
     23 C          -0.9175    0.3668   22.3686 C.3     1  UNL1        0.0000
     24 H          -1.9620    0.0936   22.2540 H       1  UNL1        0.0000
     25 H          -0.8520    1.4440   22.2628 H       1  UNL1        0.0000
     26 H          -0.6272    0.1078   23.3822 H       1  UNL1        0.0000
     27 C          -0.3966   -0.1039   19.2869 C.3     1  UNL1        0.0000
     28 H          -0.0477   -0.8541   18.5832 H       1  UNL1        0.0000
     29 H           0.0117    0.8510   18.9771 H       1  UNL1        0.0000
     30 H          -1.4778   -0.0552   19.1992 H       1  UNL1        0.0000
     31 C           1.9631   -1.3361   24.2510 C.3     1  UNL1        0.0000
     32 H           2.4601   -2.0024   24.9489 H       1  UNL1        0.0000
     33 H           0.9713   -1.7353   24.0724 H       1  UNL1        0.0000
     34 H           1.8507   -0.3770   24.7465 H       1  UNL1        0.0000
     35 C           4.6678   -0.4262   23.1088 C.3     1  UNL1        0.0000
     36 H           5.4867   -1.1099   22.9062 H       1  UNL1        0.0000
     37 H           4.7134   -0.1762   24.1651 H       1  UNL1        0.0000
     38 H           4.8620    0.4813   22.5421 H       1  UNL1        0.0000
     39 C           3.3474   -2.9697   21.9794 C.3     1  UNL1        0.0000
     40 H           3.9871   -2.9369   21.1028 H       1  UNL1        0.0000
     41 H           2.4408   -3.4972   21.7067 H       1  UNL1        0.0000
     42 H           3.8571   -3.5618   22.7325 H       1  UNL1        0.0000
@<TRIPOS>BOND
     1    28    27    1
     2    29    27    1
     3    30    27    1
     4    27     2    1
     5    16    13    1
     6    14    13    1
     7    18    17    1
     8    13     6    1
     9    13    15    1
    10    22    19    1
    11     5     6    2
    12     5     1    1
    13     6     4    1
    14     2    17    1
    15     2    19    1
    16     2    23    1
    17    40    39    1
    18    20    19    1
    19     1    17    1
    20     1    10    1
    21    17     3    1
    22    19    21    1
    23    41    39    1
    24    39     3    1
    25    39    42    1
    26     4     7    1
    27    24    23    1
    28    25    23    1
    29     9     7    1
    30    23    26    1
    31    38    35    1
    32     3    35    1
    33     3    31    1
    34     7    10    1
    35     7     8    1
    36    36    35    1
    37    10    11    1
    38    10    12    1
    39    35    37    1
    40    33    31    1
    41    31    34    1
    42    31    32    1
