@<TRIPOS>MOLECULE
1
 51 51 0 0 0
SMALL
GASTEIGER

@<TRIPOS>ATOM
      1 P          10.3916    7.2637    3.9185 P.3     1  UNL1        0.0000
      2 SI         13.1240    8.5559    2.9834 Si      1  UNL1        0.0000
      3 SI         11.7643    9.1131    5.9610 Si      1  UNL1        0.0000
      4 O          10.7906    4.3095    3.2725 O.2     1  UNL1        0.0000
      5 N          10.8339    6.5159    2.4840 N.2     1  UNL1        0.0000
      6 C          10.9425    5.2586    2.3407 C.2     1  UNL1        0.0000
      7 C          10.3792    4.6700    4.5798 C.3     1  UNL1        0.0000
      8 H          10.6566    3.8135    5.2033 H       1  UNL1        0.0000
      9 H           9.2825    4.7649    4.5929 H       1  UNL1        0.0000
     10 C          11.0087    5.9616    5.0818 C.3     1  UNL1        0.0000
     11 H          12.0983    5.9110    5.0155 H       1  UNL1        0.0000
     12 H          10.7058    6.1385    6.1114 H       1  UNL1        0.0000
     13 C          11.2552    4.6484    0.9851 C.3     1  UNL1        0.0000
     14 C          12.4228    3.6652    1.1213 C.3     1  UNL1        0.0000
     15 H          13.3280    4.1834    1.4304 H       1  UNL1        0.0000
     16 H          12.6120    3.1889    0.1623 H       1  UNL1        0.0000
     17 H          12.1925    2.8958    1.8531 H       1  UNL1        0.0000
     18 C           9.9971    3.8941    0.5335 C.3     1  UNL1        0.0000
     19 H           9.1610    4.5809    0.4257 H       1  UNL1        0.0000
     20 H           9.7284    3.1295    1.2579 H       1  UNL1        0.0000
     21 H          10.1788    3.4180   -0.4271 H       1  UNL1        0.0000
     22 C          11.6002    5.7312   -0.0323 C.3     1  UNL1        0.0000
     23 H          10.7866    6.4458   -0.1145 H       1  UNL1        0.0000
     24 H          11.7673    5.2776   -1.0063 H       1  UNL1        0.0000
     25 H          12.4975    6.2634    0.2680 H       1  UNL1        0.0000
     26 C          11.5577    8.6559    4.0996 C.3     1  UNL1        0.0000
     27 H          10.9878    9.4887    3.6710 H       1  UNL1        0.0000
     28 C          12.5746    8.9736    1.2059 C.3     1  UNL1        0.0000
     29 H          13.3194    8.6855    0.4701 H       1  UNL1        0.0000
     30 H          12.4171   10.0441    1.1026 H       1  UNL1        0.0000
     31 H          11.6437    8.4786    0.9552 H       1  UNL1        0.0000
     32 C          14.0622    6.8991    3.1324 C.3     1  UNL1        0.0000
     33 H          14.4418    6.7418    4.1377 H       1  UNL1        0.0000
     34 H          14.9162    6.8946    2.4615 H       1  UNL1        0.0000
     35 H          13.4367    6.0530    2.8731 H       1  UNL1        0.0000
     36 C          14.3693    9.9190    3.4712 C.3     1  UNL1        0.0000
     37 H          13.9314   10.9064    3.3769 H       1  UNL1        0.0000
     38 H          15.2252    9.8822    2.8056 H       1  UNL1        0.0000
     39 H          14.7404    9.8167    4.4841 H       1  UNL1        0.0000
     40 C          12.0401   10.9970    6.0568 C.3     1  UNL1        0.0000
     41 H          12.9469   11.3063    5.5510 H       1  UNL1        0.0000
     42 H          12.1201   11.3117    7.0923 H       1  UNL1        0.0000
     43 H          11.2119   11.5417    5.6141 H       1  UNL1        0.0000
     44 C          10.2317    8.7192    7.0349 C.3     1  UNL1        0.0000
     45 H           9.7788    9.6317    7.4113 H       1  UNL1        0.0000
     46 H          10.4919    8.1114    7.8973 H       1  UNL1        0.0000
     47 H           9.4655    8.1912    6.4728 H       1  UNL1        0.0000
     48 C          13.2568    8.2079    6.7413 C.3     1  UNL1        0.0000
     49 H          13.0683    7.1514    6.9036 H       1  UNL1        0.0000
     50 H          13.4802    8.6473    7.7085 H       1  UNL1        0.0000
     51 H          14.1494    8.2947    6.1320 H       1  UNL1        0.0000
@<TRIPOS>BOND
     1    24    22    1
     2    21    18    1
     3    23    22    1
     4    22    25    1
     5    22    13    1
     6    16    14    1
     7    19    18    1
     8    29    28    1
     9    18    13    1
    10    18    20    1
    11    31    28    1
    12    13    14    1
    13    13     6    1
    14    30    28    1
    15    14    15    1
    16    14    17    1
    17    28     2    1
    18     6     5    2
    19     6     4    1
    20    34    32    1
    21     5     1    1
    22    38    36    1
    23    35    32    1
    24     2    32    1
    25     2    36    1
    26     2    26    1
    27    32    33    1
    28     4     7    1
    29    37    36    1
    30    36    39    1
    31    27    26    1
    32     1    26    1
    33     1    10    1
    34    26     3    1
    35     7     9    1
    36     7    10    1
    37     7     8    1
    38    11    10    1
    39    10    12    1
    40    41    40    1
    41    43    40    1
    42     3    40    1
    43     3    48    1
    44     3    44    1
    45    40    42    1
    46    51    48    1
    47    47    44    1
    48    48    49    1
    49    48    50    1
    50    44    45    1
    51    44    46    1
