@<TRIPOS>MOLECULE
1
 12 12 0 0 0
SMALL
GASTEIGER

@<TRIPOS>ATOM
      1 P           0.1480   10.7101   14.7409 P.3     1  UNL1       -0.0055
      2 C          -0.4720   10.4107   16.4109 C.ar    1  UNL1       -0.0137
      3 C           0.3318    9.6803   17.2914 C.ar    1  UNL1       -0.0535
      4 C          -0.1195    9.3443   18.5522 C.ar    1  UNL1       -0.0611
      5 C          -1.3903    9.7165   18.9609 C.ar    1  UNL1       -0.0617
      6 C          -2.2043   10.4285   18.0935 C.ar    1  UNL1       -0.0611
      7 C          -1.7536   10.7735   16.8338 C.ar    1  UNL1       -0.0535
      8 H           1.3197    9.3836   16.9696 H       1  UNL1        0.0624
      9 H           0.5210    8.7878   19.2216 H       1  UNL1        0.0618
     10 H          -1.7450    9.4517   19.9459 H       1  UNL1        0.0618
     11 H          -3.1995   10.7145   18.4026 H       1  UNL1        0.0618
     12 H          -2.4004   11.3164   16.1562 H       1  UNL1        0.0624
@<TRIPOS>BOND
     1     1     2    1
     2    12     7    1
     3     2     7   ar
     4     2     3   ar
     5     7     6   ar
     6     8     3    1
     7     3     4   ar
     8     6    11    1
     9     6     5   ar
    10     4     5   ar
    11     4     9    1
    12     5    10    1
