@<TRIPOS>MOLECULE
1
 27 26 0 0 0
SMALL
GASTEIGER

@<TRIPOS>ATOM
      1 P           6.2984    1.7191   18.8074 P.3     1  UNL1        0.1887
      2 O           7.7614    2.3931   18.7623 O.3     1  UNL1       -0.3306
      3 N           5.8599    2.5430   20.2371 N.3     1  UNL1       -0.2529
      4 N           6.6743    0.1979   19.4285 N.3     1  UNL1       -0.2529
      5 C           8.5821    2.4927   17.6108 C.3     1  UNL1        0.0518
      6 H           8.0107    2.1922   16.7212 H       1  UNL1        0.0561
      7 H           9.4296    1.8095   17.7351 H       1  UNL1        0.0561
      8 C           9.0708    3.9253   17.4563 C.3     1  UNL1       -0.0412
      9 H           9.7336    3.9987   16.5983 H       1  UNL1        0.0252
     10 H           9.6079    4.2378   18.3488 H       1  UNL1        0.0252
     11 H           8.2252    4.5922   17.3072 H       1  UNL1        0.0252
     12 C           5.9050    3.9907   20.2525 C.3     1  UNL1       -0.0061
     13 H           6.8024    4.3313   19.7426 H       1  UNL1        0.0395
     14 H           5.9413    4.3282   21.2915 H       1  UNL1        0.0395
     15 H           5.0275    4.4406   19.7729 H       1  UNL1        0.0395
     16 C           4.6318    2.0483   20.8254 C.3     1  UNL1       -0.0061
     17 H           4.5716    0.9685   20.6935 H       1  UNL1        0.0395
     18 H           3.7415    2.5008   20.3711 H       1  UNL1        0.0395
     19 H           4.6273    2.2755   21.8946 H       1  UNL1        0.0395
     20 C           5.9171   -1.0017   19.1745 C.3     1  UNL1       -0.0061
     21 H           5.2094   -0.8150   18.3665 H       1  UNL1        0.0395
     22 H           5.3633   -1.3263   20.0645 H       1  UNL1        0.0395
     23 H           6.5871   -1.8141   18.8754 H       1  UNL1        0.0395
     24 C           7.5369    0.1148   20.5885 C.3     1  UNL1       -0.0061
     25 H           8.0108    1.0817   20.7439 H       1  UNL1        0.0395
     26 H           8.3078   -0.6443   20.4256 H       1  UNL1        0.0395
     27 H           6.9750   -0.1517   21.4909 H       1  UNL1        0.0395
@<TRIPOS>BOND
     1     9     8    1
     2     6     5    1
     3    11     8    1
     4     8     5    1
     5     8    10    1
     6     5     7    1
     7     5     2    1
     8    21    20    1
     9     2     1    1
    10     1     4    1
    11     1     3    1
    12    23    20    1
    13    20     4    1
    14    20    22    1
    15     4    24    1
    16    13    12    1
    17    15    12    1
    18     3    12    1
    19     3    16    1
    20    12    14    1
    21    18    16    1
    22    26    24    1
    23    24    25    1
    24    24    27    1
    25    17    16    1
    26    16    19    1
