@<TRIPOS>MOLECULE
1
 43 44 0 0 0
SMALL
GASTEIGER

@<TRIPOS>ATOM
      1 P           3.5078    5.4427    3.7566 P.3     1  UNL1        0.0000
      2 SI          1.9426    2.8212    4.2151 Si      1  UNL1        0.0000
      3 SI          4.7689    3.0086    2.3823 Si      1  UNL1        0.0000
      4 O           3.2499    5.4054    5.3675 O.3     1  UNL1        0.0000
      5 C           4.6570    5.2184    5.1146 C.3     1  UNL1        0.0000
      6 H           4.9895    4.2028    5.3128 H       1  UNL1        0.0000
      7 C           5.5820    6.2993    5.4834 C.ar    1  UNL1        0.0000
      8 C           5.1108    7.5711    5.7915 C.ar    1  UNL1        0.0000
      9 H           4.0454    7.7360    5.8497 H       1  UNL1        0.0000
     10 C           5.9961    8.5983    6.0617 C.ar    1  UNL1        0.0000
     11 H           5.6180    9.5810    6.3010 H       1  UNL1        0.0000
     12 C           7.3604    8.3684    6.0200 C.ar    1  UNL1        0.0000
     13 H           8.0520    9.1725    6.2207 H       1  UNL1        0.0000
     14 C           7.8369    7.1008    5.7264 C.ar    1  UNL1        0.0000
     15 H           8.9004    6.9158    5.7013 H       1  UNL1        0.0000
     16 C           6.9558    6.0696    5.4623 C.ar    1  UNL1        0.0000
     17 H           7.3288    5.0807    5.2341 H       1  UNL1        0.0000
     18 C           3.1528    3.7939    3.0769 C.3     1  UNL1        0.0000
     19 H           2.5616    4.0337    2.1854 H       1  UNL1        0.0000
     20 C           2.6767    2.3068    5.8979 C.3     1  UNL1        0.0000
     21 H           3.6020    1.7493    5.7961 H       1  UNL1        0.0000
     22 H           1.9721    1.6706    6.4253 H       1  UNL1        0.0000
     23 H           2.8691    3.1696    6.5263 H       1  UNL1        0.0000
     24 C           1.4312    1.2524    3.2613 C.3     1  UNL1        0.0000
     25 H           2.2661    0.5746    3.1211 H       1  UNL1        0.0000
     26 H           1.0302    1.4898    2.2819 H       1  UNL1        0.0000
     27 H           0.6631    0.7160    3.8068 H       1  UNL1        0.0000
     28 C           0.4386    3.9660    4.4554 C.3     1  UNL1        0.0000
     29 H          -0.1007    4.1176    3.5242 H       1  UNL1        0.0000
     30 H           0.7606    4.9416    4.8127 H       1  UNL1        0.0000
     31 H          -0.2658    3.5666    5.1788 H       1  UNL1        0.0000
     32 C           4.3049    2.1513    0.7455 C.3     1  UNL1        0.0000
     33 H           3.9445    2.8656    0.0115 H       1  UNL1        0.0000
     34 H           3.5283    1.4075    0.8894 H       1  UNL1        0.0000
     35 H           5.1649    1.6487    0.3158 H       1  UNL1        0.0000
     36 C           6.0607    4.3691    2.0349 C.3     1  UNL1        0.0000
     37 H           6.2783    4.9629    2.9186 H       1  UNL1        0.0000
     38 H           5.7164    5.0524    1.2644 H       1  UNL1        0.0000
     39 H           6.9972    3.9418    1.6892 H       1  UNL1        0.0000
     40 C           5.5249    1.7282    3.5787 C.3     1  UNL1        0.0000
     41 H           5.8411    2.1650    4.5207 H       1  UNL1        0.0000
     42 H           6.4005    1.2755    3.1244 H       1  UNL1        0.0000
     43 H           4.8251    0.9294    3.7999 H       1  UNL1        0.0000
@<TRIPOS>BOND
     1    33    32    1
     2    35    32    1
     3    32    34    1
     4    32     3    1
     5    38    36    1
     6    39    36    1
     7    36     3    1
     8    36    37    1
     9    19    18    1
    10    26    24    1
    11     3    18    1
    12     3    40    1
    13    18     1    1
    14    18     2    1
    15    25    24    1
    16    42    40    1
    17    24    27    1
    18    24     2    1
    19    29    28    1
    20    40    43    1
    21    40    41    1
    22     1     5    1
    23     1     4    1
    24     2    28    1
    25     2    20    1
    26    28    30    1
    27    28    31    1
    28     5     6    1
    29     5     4    1
    30     5     7    1
    31    17    16    1
    32    16     7   ar
    33    16    14   ar
    34     7     8   ar
    35    15    14    1
    36    14    12   ar
    37     8     9    1
    38     8    10   ar
    39    21    20    1
    40    20    22    1
    41    20    23    1
    42    12    10   ar
    43    12    13    1
    44    10    11    1
