@<TRIPOS>MOLECULE
1
 48 48 0 0 0
SMALL
GASTEIGER

@<TRIPOS>ATOM
      1 P          -2.8564    2.6927   17.0867 P.3     1  UNL1        0.0000
      2 P          -3.1557    0.8074   16.0315 P.3     1  UNL1        0.0000
      3 SI         -4.1087    0.2928   13.2613 Si      1  UNL1        0.0000
      4 C          -3.5124   -0.5114   11.6347 C.3     1  UNL1        0.0000
      5 C          -5.0557   -0.9990   14.2986 C.3     1  UNL1        0.0000
      6 C          -5.4102    1.6109   12.8101 C.3     1  UNL1        0.0000
      7 SI         -2.1511    2.8300   13.7370 Si      1  UNL1        0.0000
      8 C          -3.4175    4.2060   14.1281 C.3     1  UNL1        0.0000
      9 C          -1.9161    2.8588   11.8421 C.3     1  UNL1        0.0000
     10 C          -0.4911    3.4007   14.4988 C.3     1  UNL1        0.0000
     11 SI         -1.0557   -0.1482   14.3159 Si      1  UNL1        0.0000
     12 C           0.0858    0.3120   15.7848 C.3     1  UNL1        0.0000
     13 C          -1.5831   -1.9544   14.6428 C.3     1  UNL1        0.0000
     14 C           0.0056   -0.1145   12.7314 C.3     1  UNL1        0.0000
     15 C          -4.3621    2.0893   16.3592 C.2     1  UNL1        0.0000
     16 N          -5.5990    2.3527   16.2220 N.2     1  UNL1        0.0000
     17 C          -6.1284    3.4721   16.8119 C.3     1  UNL1        0.0000
     18 F          -7.3167    3.2202   17.3787 F       1  UNL1        0.0000
     19 F          -6.3475    4.4767   15.9391 F       1  UNL1        0.0000
     20 F          -5.3798    4.0423   17.8127 F       1  UNL1        0.0000
     21 C          -2.6077    1.0252   14.2618 C.3     1  UNL1        0.0000
     22 H          -2.9783    0.1940   11.0097 H       1  UNL1        0.0000
     23 H          -4.3679   -0.8644   11.0688 H       1  UNL1        0.0000
     24 H          -2.8625   -1.3609   11.8078 H       1  UNL1        0.0000
     25 H          -4.4102   -1.7596   14.7226 H       1  UNL1        0.0000
     26 H          -5.8095   -1.5020   13.6998 H       1  UNL1        0.0000
     27 H          -5.5669   -0.5025   15.1194 H       1  UNL1        0.0000
     28 H          -5.0073    2.4239   12.2174 H       1  UNL1        0.0000
     29 H          -5.8528    2.0308   13.7074 H       1  UNL1        0.0000
     30 H          -6.2125    1.1551   12.2377 H       1  UNL1        0.0000
     31 H          -4.4374    3.8434   14.1409 H       1  UNL1        0.0000
     32 H          -3.3630    4.9921   13.3802 H       1  UNL1        0.0000
     33 H          -3.2231    4.6615   15.0953 H       1  UNL1        0.0000
     34 H          -1.2495    2.0779   11.5000 H       1  UNL1        0.0000
     35 H          -1.4885    3.8090   11.5393 H       1  UNL1        0.0000
     36 H          -2.8565    2.7435   11.3164 H       1  UNL1        0.0000
     37 H           0.3533    2.8734   14.0697 H       1  UNL1        0.0000
     38 H          -0.4698    3.2461   15.5727 H       1  UNL1        0.0000
     39 H          -0.3419    4.4608   14.3157 H       1  UNL1        0.0000
     40 H           0.9056    0.9554   15.4860 H       1  UNL1        0.0000
     41 H           0.5171   -0.5802   16.2281 H       1  UNL1        0.0000
     42 H          -0.4699    0.8244   16.5664 H       1  UNL1        0.0000
     43 H          -2.2090   -2.3554   13.8542 H       1  UNL1        0.0000
     44 H          -2.1297   -2.0319   15.5777 H       1  UNL1        0.0000
     45 H          -0.7088   -2.5934   14.7225 H       1  UNL1        0.0000
     46 H           0.4737    0.8505   12.5750 H       1  UNL1        0.0000
     47 H          -0.5719   -0.3533   11.8470 H       1  UNL1        0.0000
     48 H           0.7980   -0.8512   12.8121 H       1  UNL1        0.0000
@<TRIPOS>BOND
     1    22     4    1
     2    23     4    1
     3    36     9    1
     4    34     9    1
     5    35     9    1
     6     4    24    1
     7     4     3    1
     8     9     7    1
     9    47    14    1
    10    28     6    1
    11    30     6    1
    12    46    14    1
    13    14    48    1
    14    14    11    1
    15     6     3    1
    16     6    29    1
    17     3    21    1
    18     3     5    1
    19    32     8    1
    20    26     5    1
    21     7     8    1
    22     7    21    1
    23     7    10    1
    24    43    13    1
    25    37    10    1
    26     8    31    1
    27     8    33    1
    28    21    11    1
    29    21     2    1
    30     5    25    1
    31     5    27    1
    32    39    10    1
    33    11    13    1
    34    11    12    1
    35    10    38    1
    36    13    45    1
    37    13    44    1
    38    40    12    1
    39    12    41    1
    40    12    42    1
    41    19    17    1
    42     2    15    1
    43     2     1    1
    44    16    15    2
    45    16    17    1
    46    15     1    1
    47    17    18    1
    48    17    20    1
