@<TRIPOS>MOLECULE
1
 34 36 0 0 0
SMALL
GASTEIGER

@<TRIPOS>ATOM
      1 P           2.0823    8.9756    3.3027 P.3     1  UNL1       -0.0131
      2 C           2.8278    8.2251    1.8147 C.ar    1  UNL1       -0.0147
      3 C           4.1737    7.8845    1.8098 C.ar    1  UNL1       -0.0535
      4 C           4.7409    7.3082    0.6838 C.ar    1  UNL1       -0.0611
      5 C           3.9669    7.0661   -0.4384 C.ar    1  UNL1       -0.0617
      6 C           2.6173    7.3863   -0.4303 C.ar    1  UNL1       -0.0611
      7 C           2.0470    7.9592    0.6913 C.ar    1  UNL1       -0.0535
      8 C           1.3474   10.5306    2.6966 C.ar    1  UNL1       -0.0147
      9 C           0.5849   11.2554    3.6125 C.ar    1  UNL1       -0.0535
     10 C           0.0068   12.4552    3.2375 C.ar    1  UNL1       -0.0611
     11 C           0.1935   12.9494    1.9553 C.ar    1  UNL1       -0.0617
     12 C           0.9655   12.2410    1.0498 C.ar    1  UNL1       -0.0611
     13 C           1.5430   11.0366    1.4165 C.ar    1  UNL1       -0.0535
     14 C           0.6328    7.8760    3.4317 C.ar    1  UNL1       -0.0147
     15 C           0.9017    6.5300    3.6611 C.ar    1  UNL1       -0.0535
     16 C          -0.1257    5.6061    3.6843 C.ar    1  UNL1       -0.0611
     17 C          -1.4332    6.0168    3.4763 C.ar    1  UNL1       -0.0617
     18 C          -1.7056    7.3545    3.2482 C.ar    1  UNL1       -0.0611
     19 C          -0.6790    8.2851    3.2255 C.ar    1  UNL1       -0.0535
     20 H           4.7583    8.0300    2.7053 H       1  UNL1        0.0624
     21 H           5.7863    7.0392    0.6934 H       1  UNL1        0.0618
     22 H           4.4088    6.6186   -1.3166 H       1  UNL1        0.0618
     23 H           2.0089    7.1849   -1.3001 H       1  UNL1        0.0618
     24 H           0.9926    8.1990    0.7027 H       1  UNL1        0.0624
     25 H           0.4652   10.8809    4.6213 H       1  UNL1        0.0624
     26 H          -0.5839   13.0078    3.9525 H       1  UNL1        0.0618
     27 H          -0.2546   13.8882    1.6646 H       1  UNL1        0.0618
     28 H           1.1224   12.6287    0.0538 H       1  UNL1        0.0618
     29 H           2.1496   10.4962    0.7049 H       1  UNL1        0.0624
     30 H           1.9227    6.2270    3.8354 H       1  UNL1        0.0624
     31 H           0.0953    4.5637    3.8615 H       1  UNL1        0.0618
     32 H          -2.2373    5.2955    3.4896 H       1  UNL1        0.0618
     33 H          -2.7230    7.6788    3.0828 H       1  UNL1        0.0618
     34 H          -0.9039    9.3256    3.0423 H       1  UNL1        0.0624
@<TRIPOS>BOND
     1    22     5    1
     2    23     6    1
     3     5     6   ar
     4     5     4   ar
     5     6     7   ar
     6    28    12    1
     7     4    21    1
     8     4     3   ar
     9     7    24    1
    10     7     2   ar
    11    29    13    1
    12    12    13   ar
    13    12    11   ar
    14    13     8   ar
    15    27    11    1
    16     3     2   ar
    17     3    20    1
    18     2     1    1
    19    11    10   ar
    20     8     1    1
    21     8     9   ar
    22    34    19    1
    23    33    18    1
    24    19    18   ar
    25    19    14   ar
    26    10     9   ar
    27    10    26    1
    28    18    17   ar
    29     1    14    1
    30    14    15   ar
    31    17    32    1
    32    17    16   ar
    33     9    25    1
    34    15    16   ar
    35    15    30    1
    36    16    31    1
