@<TRIPOS>MOLECULE
1
 25 24 0 0 0
SMALL
GASTEIGER

@<TRIPOS>ATOM
      1 P           4.0707    0.5078   13.5763 P.3     1  UNL1        0.3345
      2 O           4.6028   -0.5239   14.6754 O.3     1  UNL1       -0.3119
      3 O           4.5081   -0.0870   12.1524 O.3     1  UNL1       -0.3119
      4 O           2.4879    0.1217   13.6414 O.3     1  UNL1       -0.3119
      5 C           4.2254   -1.9011   14.7836 C.3     1  UNL1        0.0536
      6 C           4.6242   -2.3872   16.1675 C.3     1  UNL1       -0.0411
      7 C           3.8874   -1.2050   11.5108 C.3     1  UNL1        0.0536
      8 C           3.5611   -0.8532   10.0683 C.3     1  UNL1       -0.0411
      9 C           1.5288    1.0225   13.0944 C.3     1  UNL1        0.0536
     10 C           0.2469    0.9370   13.9053 C.3     1  UNL1       -0.0411
     11 H           3.1464   -1.9972   14.6360 H       1  UNL1        0.0562
     12 H           4.7502   -2.4774   14.0156 H       1  UNL1        0.0562
     13 H           5.6876   -2.2267   16.3174 H       1  UNL1        0.0252
     14 H           4.4032   -3.4468   16.2648 H       1  UNL1        0.0252
     15 H           4.0790   -1.8411   16.9324 H       1  UNL1        0.0252
     16 H           4.5962   -2.0391   11.5445 H       1  UNL1        0.0562
     17 H           2.9758   -1.4903   12.0458 H       1  UNL1        0.0562
     18 H           2.9335    0.0331   10.0357 H       1  UNL1        0.0252
     19 H           3.0412   -1.6839    9.5966 H       1  UNL1        0.0252
     20 H           4.4770   -0.6523    9.5208 H       1  UNL1        0.0252
     21 H           1.9392    2.0371   13.1095 H       1  UNL1        0.0562
     22 H           1.3368    0.7482   12.0519 H       1  UNL1        0.0562
     23 H          -0.1577   -0.0714   13.8699 H       1  UNL1        0.0252
     24 H          -0.4832    1.6284   13.4957 H       1  UNL1        0.0252
     25 H           0.4430    1.1926   14.9421 H       1  UNL1        0.0252
@<TRIPOS>BOND
     1    20     8    1
     2    19     8    1
     3    18     8    1
     4     8     7    1
     5     7    16    1
     6     7    17    1
     7     7     3    1
     8    22     9    1
     9     3     1    1
    10     9    21    1
    11     9     4    1
    12     9    10    1
    13    24    10    1
    14     1     4    1
    15     1     2    1
    16    23    10    1
    17    10    25    1
    18    12     5    1
    19    11     5    1
    20     2     5    1
    21     5     6    1
    22     6    14    1
    23     6    13    1
    24     6    15    1
