@<TRIPOS>MOLECULE
1
 13 12 0 0 0
SMALL
GASTEIGER

@<TRIPOS>ATOM
      1 P           2.1978    4.8526    4.3290 P.3     1  UNL1       -0.1154
      2 C           2.6608    5.2079    2.5868 C.3     1  UNL1       -0.0447
      3 H           2.4615    6.2557    2.3602 H       1  UNL1        0.0277
      4 H           2.0488    4.5688    1.9506 H       1  UNL1        0.0277
      5 H           3.7123    4.9991    2.4061 H       1  UNL1        0.0277
      6 C           0.5742    5.7105    4.2819 C.3     1  UNL1       -0.0447
      7 H           0.7024    6.7210    3.8925 H       1  UNL1        0.0277
      8 H           0.1255    5.7630    5.2706 H       1  UNL1        0.0277
      9 H          -0.0766    5.1372    3.6219 H       1  UNL1        0.0277
     10 C           3.2050    6.1378    5.1905 C.3     1  UNL1       -0.0447
     11 H           4.2397    5.8084    5.2533 H       1  UNL1        0.0277
     12 H           2.8363    6.2686    6.2053 H       1  UNL1        0.0277
     13 H           3.1495    7.0863    4.6560 H       1  UNL1        0.0277
@<TRIPOS>BOND
     1     4     2    1
     2     3     2    1
     3     5     2    1
     4     2     1    1
     5     9     6    1
     6     7     6    1
     7     6     1    1
     8     6     8    1
     9     1    10    1
    10    13    10    1
    11    10    11    1
    12    10    12    1
