@<TRIPOS>MOLECULE
1
 13 12 0 0 0
SMALL
GASTEIGER

@<TRIPOS>ATOM
      1 P           1.5466    0.4088    4.8293 P.3     1  UNL1       -0.1154
      2 C           1.8065   -0.4360    3.2191 C.3     1  UNL1       -0.0447
      3 H           2.8620   -0.4926    2.9658 H       1  UNL1        0.0277
      4 H           1.2852    0.1483    2.4611 H       1  UNL1        0.0277
      5 H           1.3929   -1.4441    3.2609 H       1  UNL1        0.0277
      6 C          -0.2551    0.0675    4.9389 C.3     1  UNL1       -0.0447
      7 H          -0.4462   -0.9803    4.7054 H       1  UNL1        0.0277
      8 H          -0.7503    0.7057    4.2074 H       1  UNL1        0.0277
      9 H          -0.6407    0.2872    5.9313 H       1  UNL1        0.0277
     10 C           2.1857   -0.8917    5.9728 C.3     1  UNL1       -0.0447
     11 H           2.0105   -0.5892    7.0028 H       1  UNL1        0.0277
     12 H           3.2593   -0.9998    5.8374 H       1  UNL1        0.0277
     13 H           1.6930   -1.8446    5.7782 H       1  UNL1        0.0277
@<TRIPOS>BOND
     1     4     2    1
     2     3     2    1
     3     2     5    1
     4     2     1    1
     5     8     6    1
     6     7     6    1
     7     1     6    1
     8     1    10    1
     9     6     9    1
    10    13    10    1
    11    12    10    1
    12    10    11    1
