@<TRIPOS>MOLECULE
1
 13 12 0 0 0
SMALL
GASTEIGER

@<TRIPOS>ATOM
      1 P           0.7089    3.0367    6.6622 P.3     1  UNL1       -0.1154
      2 C          -1.1127    3.2778    6.4833 C.3     1  UNL1       -0.0447
      3 H          -1.5696    2.3517    6.1422 H       1  UNL1        0.0277
      4 H          -1.3082    4.0402    5.7325 H       1  UNL1        0.0277
      5 H          -1.5528    3.5739    7.4357 H       1  UNL1        0.0277
      6 C           0.7262    1.8071    8.0267 C.3     1  UNL1       -0.0447
      7 H           0.0970    2.1566    8.8458 H       1  UNL1        0.0277
      8 H           1.7583    1.7141    8.3643 H       1  UNL1        0.0277
      9 H           0.3692    0.8368    7.6908 H       1  UNL1        0.0277
     10 C           1.1204    4.4916    7.7055 C.3     1  UNL1       -0.0447
     11 H           0.9629    5.4230    7.1674 H       1  UNL1        0.0277
     12 H           2.1711    4.4047    7.9818 H       1  UNL1        0.0277
     13 H           0.5007    4.4884    8.6026 H       1  UNL1        0.0277
@<TRIPOS>BOND
     1     4     2    1
     2     3     2    1
     3     2     1    1
     4     2     5    1
     5     1    10    1
     6     1     6    1
     7    11    10    1
     8     9     6    1
     9    10    12    1
    10    10    13    1
    11     6     8    1
    12     6     7    1
