@<TRIPOS>MOLECULE
1
 13 12 0 0 0
SMALL
GASTEIGER

@<TRIPOS>ATOM
      1 P           4.1377    2.2158    3.8353 P.3     1  UNL1       -0.1154
      2 C           4.3085    1.9985    2.0101 C.3     1  UNL1       -0.0447
      3 H           4.0453    2.9263    1.5074 H       1  UNL1        0.0277
      4 H           3.6195    1.2293    1.6684 H       1  UNL1        0.0277
      5 H           5.3310    1.7200    1.7541 H       1  UNL1        0.0277
      6 C           5.0711    0.7441    4.4169 C.3     1  UNL1       -0.0447
      7 H           4.5624   -0.1788    4.1501 H       1  UNL1        0.0277
      8 H           5.1463    0.8160    5.5019 H       1  UNL1        0.0277
      9 H           6.0681    0.7428    3.9754 H       1  UNL1        0.0277
     10 C           5.4825    3.4319    4.1296 C.3     1  UNL1       -0.0447
     11 H           6.4035    3.0830    3.6615 H       1  UNL1        0.0277
     12 H           5.6196    3.5097    5.2080 H       1  UNL1        0.0277
     13 H           5.2268    4.4096    3.7292 H       1  UNL1        0.0277
@<TRIPOS>BOND
     1     3     2    1
     2     4     2    1
     3     5     2    1
     4     2     1    1
     5    11    10    1
     6    13    10    1
     7     1    10    1
     8     1     6    1
     9     9     6    1
    10    10    12    1
    11     7     6    1
    12     6     8    1
