@<TRIPOS>MOLECULE
1
 34 36 0 0 0
SMALL
GASTEIGER

@<TRIPOS>ATOM
      1 P           2.8378    7.7309    6.1131 P.3     1  UNL1       -0.0131
      2 C           1.7023    9.1540    6.3060 C.ar    1  UNL1       -0.0147
      3 C           0.6839    9.2683    5.3626 C.ar    1  UNL1       -0.0535
      4 H           0.5993    8.5153    4.5912 H       1  UNL1        0.0624
      5 C          -0.2112   10.3199    5.4114 C.ar    1  UNL1       -0.0611
      6 H          -0.9916   10.4003    4.6685 H       1  UNL1        0.0618
      7 C          -0.0964   11.2751    6.4102 C.ar    1  UNL1       -0.0617
      8 H          -0.7879   12.1041    6.4485 H       1  UNL1        0.0618
      9 C           0.9062   11.1627    7.3593 C.ar    1  UNL1       -0.0611
     10 H           0.9918   11.9019    8.1427 H       1  UNL1        0.0618
     11 C           1.8025   10.1081    7.3114 C.ar    1  UNL1       -0.0535
     12 H           2.5800   10.0283    8.0568 H       1  UNL1        0.0624
     13 C           4.1464    8.1458    7.3158 C.ar    1  UNL1       -0.0147
     14 C           4.4256    7.4043    8.4569 C.ar    1  UNL1       -0.0535
     15 H           3.8211    6.5445    8.7060 H       1  UNL1        0.0624
     16 C           5.4772    7.7677    9.2819 C.ar    1  UNL1       -0.0611
     17 H           5.6885    7.1842   10.1664 H       1  UNL1        0.0618
     18 C           6.2574    8.8703    8.9790 C.ar    1  UNL1       -0.0617
     19 H           7.0785    9.1463    9.6242 H       1  UNL1        0.0618
     20 C           5.9810    9.6180    7.8446 C.ar    1  UNL1       -0.0611
     21 H           6.5837   10.4811    7.6013 H       1  UNL1        0.0618
     22 C           4.9368    9.2543    7.0179 C.ar    1  UNL1       -0.0535
     23 H           4.7196    9.8325    6.1307 H       1  UNL1        0.0624
     24 C           1.9140    6.4301    6.9964 C.ar    1  UNL1       -0.0147
     25 C           0.6795    6.6390    7.6000 C.ar    1  UNL1       -0.0535
     26 H           0.2106    7.6115    7.5605 H       1  UNL1        0.0624
     27 C           0.0445    5.5977    8.2557 C.ar    1  UNL1       -0.0611
     28 H          -0.9162    5.7655    8.7213 H       1  UNL1        0.0618
     29 C           0.6352    4.3473    8.3195 C.ar    1  UNL1       -0.0617
     30 H           0.1367    3.5396    8.8355 H       1  UNL1        0.0618
     31 C           1.8639    4.1340    7.7138 C.ar    1  UNL1       -0.0611
     32 H           2.3246    3.1576    7.7606 H       1  UNL1        0.0618
     33 C           2.4971    5.1661    7.0477 C.ar    1  UNL1       -0.0535
     34 H           3.4372    5.0110    6.5412 H       1  UNL1        0.0624
@<TRIPOS>BOND
     1     4     3    1
     2     6     5    1
     3     3     5   ar
     4     3     2   ar
     5     5     7   ar
     6     1     2    1
     7     1    24    1
     8     1    13    1
     9    23    22    1
    10     2    11   ar
    11     7     8    1
    12     7     9   ar
    13    34    33    1
    14    24    33   ar
    15    24    25   ar
    16    22    13   ar
    17    22    20   ar
    18    33    31   ar
    19    11     9   ar
    20    11    12    1
    21    13    14   ar
    22     9    10    1
    23    26    25    1
    24    25    27   ar
    25    21    20    1
    26    31    32    1
    27    31    29   ar
    28    20    18   ar
    29    27    29   ar
    30    27    28    1
    31    29    30    1
    32    14    15    1
    33    14    16   ar
    34    18    16   ar
    35    18    19    1
    36    16    17    1
