@<TRIPOS>MOLECULE
1
 34 36 0 0 0
SMALL
GASTEIGER

@<TRIPOS>ATOM
      1 P           3.3510    9.4391    3.1516 P.3     1  UNL1       -0.0131
      2 C           4.3545    9.2036    1.6412 C.ar    1  UNL1       -0.0147
      3 C           4.8413    7.9178    1.4368 C.ar    1  UNL1       -0.0535
      4 H           4.6369    7.1473    2.1846 H       1  UNL1        0.0624
      5 C           5.5783    7.6234    0.3045 C.ar    1  UNL1       -0.0611
      6 H           5.9555    6.6234    0.1482 H       1  UNL1        0.0618
      7 C           5.8278    8.6166   -0.6286 C.ar    1  UNL1       -0.0617
      8 H           6.4033    8.3931   -1.5151 H       1  UNL1        0.0618
      9 C           5.3390    9.8995   -0.4301 C.ar    1  UNL1       -0.0611
     10 H           5.5346   10.6691   -1.1629 H       1  UNL1        0.0618
     11 C           4.5991   10.1968    0.6996 C.ar    1  UNL1       -0.0535
     12 H           4.2140   11.1952    0.8551 H       1  UNL1        0.0624
     13 C           4.0557   10.9652    3.8545 C.ar    1  UNL1       -0.0147
     14 C           5.4213   11.2181    3.7490 C.ar    1  UNL1       -0.0535
     15 H           6.0396   10.5698    3.1435 H       1  UNL1        0.0624
     16 C           5.9861   12.2896    4.4162 C.ar    1  UNL1       -0.0611
     17 H           7.0450   12.4825    4.3224 H       1  UNL1        0.0618
     18 C           5.1996   13.1092    5.2094 C.ar    1  UNL1       -0.0617
     19 H           5.6431   13.9435    5.7327 H       1  UNL1        0.0618
     20 C           3.8440   12.8509    5.3369 C.ar    1  UNL1       -0.0611
     21 H           3.2282   13.4802    5.9629 H       1  UNL1        0.0618
     22 C           3.2752   11.7819    4.6707 C.ar    1  UNL1       -0.0535
     23 H           2.2209   11.5729    4.7807 H       1  UNL1        0.0624
     24 C           1.8231   10.0171    2.3280 C.ar    1  UNL1       -0.0147
     25 C           1.5066   11.3419    2.0574 C.ar    1  UNL1       -0.0535
     26 H           2.1689   12.1364    2.3697 H       1  UNL1        0.0624
     27 C           0.3348   11.6486    1.3873 C.ar    1  UNL1       -0.0611
     28 H           0.0903   12.6814    1.1836 H       1  UNL1        0.0618
     29 C          -0.5214   10.6416    0.9750 C.ar    1  UNL1       -0.0617
     30 H          -1.4357   10.8889    0.4557 H       1  UNL1        0.0618
     31 C          -0.2009    9.3166    1.2249 C.ar    1  UNL1       -0.0611
     32 H          -0.8622    8.5277    0.8972 H       1  UNL1        0.0618
     33 C           0.9658    9.0086    1.8970 C.ar    1  UNL1       -0.0535
     34 H           1.2300    7.9764    2.0970 H       1  UNL1        0.0624
@<TRIPOS>BOND
     1     8     7    1
     2    10     9    1
     3     7     9   ar
     4     7     5   ar
     5     9    11   ar
     6     6     5    1
     7     5     3   ar
     8    30    29    1
     9    11    12    1
    10    11     2   ar
    11    32    31    1
    12    29    31   ar
    13    29    27   ar
    14    28    27    1
    15    31    33   ar
    16    27    25   ar
    17     3     2   ar
    18     3     4    1
    19     2     1    1
    20    33    34    1
    21    33    24   ar
    22    25    24   ar
    23    25    26    1
    24    24     1    1
    25    15    14    1
    26     1    13    1
    27    14    13   ar
    28    14    16   ar
    29    13    22   ar
    30    17    16    1
    31    16    18   ar
    32    22    23    1
    33    22    20   ar
    34    18    20   ar
    35    18    19    1
    36    20    21    1
