@<TRIPOS>MOLECULE
1
 13 12 0 0 0
SMALL
GASTEIGER

@<TRIPOS>ATOM
      1 P           1.7268    1.2642    7.8747 P.3     1  UNL1       -0.1154
      2 C           1.0686    2.3220    9.2202 C.3     1  UNL1       -0.0447
      3 C           0.1881    0.3332    7.4954 C.3     1  UNL1       -0.0447
      4 C           2.5764   -0.0775    8.8170 C.3     1  UNL1       -0.0447
      5 H          -0.5661    1.0255    7.1283 H       1  UNL1        0.0277
      6 H           0.5422    1.7181    9.9605 H       1  UNL1        0.0277
      7 H           0.3779    3.0343    8.7675 H       1  UNL1        0.0277
      8 H           1.8786    2.8694    9.6972 H       1  UNL1        0.0277
      9 H          -0.1858   -0.1698    8.3880 H       1  UNL1        0.0277
     10 H           0.3923   -0.4018    6.7196 H       1  UNL1        0.0277
     11 H           1.9370   -0.4565    9.6148 H       1  UNL1        0.0277
     12 H           3.5093    0.2885    9.2383 H       1  UNL1        0.0277
     13 H           2.8024   -0.8810    8.1158 H       1  UNL1        0.0277
@<TRIPOS>BOND
     1    10     3    1
     2     5     3    1
     3     3     1    1
     4     3     9    1
     5     1     4    1
     6     1     2    1
     7    13     4    1
     8     7     2    1
     9     4    12    1
    10     4    11    1
    11     2     8    1
    12     2     6    1
