@<TRIPOS>MOLECULE
1
 46 47 0 0 0
SMALL
GASTEIGER

@<TRIPOS>ATOM
      1 P           4.1249    6.5496    9.9569 P.3     1  UNL1        0.0000
      2 SI          5.7550    5.2279    7.7331 Si      1  UNL1        0.0000
      3 SI          2.8815    3.8843    8.7981 Si      1  UNL1        0.0000
      4 O           3.0619    5.9865   11.1151 O.3     1  UNL1        0.0000
      5 C           4.0552    5.5697   12.0635 C.3     1  UNL1        0.0000
      6 H           3.8714    4.5413   12.3811 H       1  UNL1        0.0000
      7 H           4.0335    6.2171   12.9438 H       1  UNL1        0.0000
      8 C           5.3049    5.7564   11.1911 C.3     1  UNL1        0.0000
      9 H           5.6737    4.8023   10.8101 H       1  UNL1        0.0000
     10 C           6.4130    6.5904   11.7264 C.ar    1  UNL1        0.0000
     11 C           6.1494    7.8077   12.3465 C.ar    1  UNL1        0.0000
     12 H           5.1268    8.1358   12.4688 H       1  UNL1        0.0000
     13 C           7.1822    8.6013   12.8119 C.ar    1  UNL1        0.0000
     14 H           6.9590    9.5444   13.2880 H       1  UNL1        0.0000
     15 C           8.4959    8.1935   12.6586 C.ar    1  UNL1        0.0000
     16 H           9.3023    8.8159   13.0153 H       1  UNL1        0.0000
     17 C           8.7704    6.9838   12.0432 C.ar    1  UNL1        0.0000
     18 H           9.7928    6.6587   11.9202 H       1  UNL1        0.0000
     19 C           7.7378    6.1883   11.5820 C.ar    1  UNL1        0.0000
     20 H           7.9605    5.2477   11.0982 H       1  UNL1        0.0000
     21 C           4.0111    5.4226    8.5334 C.3     1  UNL1        0.0000
     22 H           3.4533    6.0266    7.8080 H       1  UNL1        0.0000
     23 C           5.5273    5.1793    5.8421 C.3     1  UNL1        0.0000
     24 H           4.9443    4.3225    5.5237 H       1  UNL1        0.0000
     25 H           6.4909    5.1216    5.3464 H       1  UNL1        0.0000
     26 H           5.0280    6.0719    5.4786 H       1  UNL1        0.0000
     27 C           6.8738    6.7101    8.1631 C.3     1  UNL1        0.0000
     28 H           6.6037    7.5894    7.5854 H       1  UNL1        0.0000
     29 H           7.9155    6.4914    7.9452 H       1  UNL1        0.0000
     30 H           6.8119    6.9793    9.2138 H       1  UNL1        0.0000
     31 C           6.6142    3.6153    8.2943 C.3     1  UNL1        0.0000
     32 H           6.9710    3.6591    9.3184 H       1  UNL1        0.0000
     33 H           7.4782    3.4289    7.6645 H       1  UNL1        0.0000
     34 H           5.9576    2.7562    8.2088 H       1  UNL1        0.0000
     35 C           1.1007    4.4797    9.1190 C.3     1  UNL1        0.0000
     36 H           1.0521    5.1258    9.9896 H       1  UNL1        0.0000
     37 H           0.4287    3.6426    9.2860 H       1  UNL1        0.0000
     38 H           0.7164    5.0424    8.2725 H       1  UNL1        0.0000
     39 C           2.8829    2.9128    7.1553 C.3     1  UNL1        0.0000
     40 H           2.6012    3.5428    6.3186 H       1  UNL1        0.0000
     41 H           2.1654    2.1009    7.2051 H       1  UNL1        0.0000
     42 H           3.8511    2.4789    6.9311 H       1  UNL1        0.0000
     43 C           3.4543    2.6905   10.1765 C.3     1  UNL1        0.0000
     44 H           4.5266    2.7078   10.3401 H       1  UNL1        0.0000
     45 H           3.1822    1.6718    9.9178 H       1  UNL1        0.0000
     46 H           2.9671    2.9221   11.1178 H       1  UNL1        0.0000
@<TRIPOS>BOND
     1    25    23    1
     2    26    23    1
     3    24    23    1
     4    23     2    1
     5    40    39    1
     6    42    39    1
     7    39    41    1
     8    39     3    1
     9    28    27    1
    10    33    31    1
    11     2    27    1
    12     2    31    1
    13     2    21    1
    14    22    21    1
    15    29    27    1
    16    27    30    1
    17    34    31    1
    18    38    35    1
    19    31    32    1
    20    21     3    1
    21    21     1    1
    22     3    35    1
    23     3    43    1
    24    35    37    1
    25    35    36    1
    26    45    43    1
    27     1     4    1
    28     1     8    1
    29    43    44    1
    30    43    46    1
    31     9     8    1
    32    20    19    1
    33     4     5    1
    34     8    10    1
    35     8     5    1
    36    19    10   ar
    37    19    17   ar
    38    10    11   ar
    39    18    17    1
    40    17    15   ar
    41     5     6    1
    42     5     7    1
    43    11    12    1
    44    11    13   ar
    45    15    13   ar
    46    15    16    1
    47    13    14    1
