@<TRIPOS>MOLECULE
1
 52 53 0 0 0
SMALL
GASTEIGER

@<TRIPOS>ATOM
      1 P          -1.0733   -8.8886    3.7286 P.3     1  UNL1        0.0000
      2 SI         -2.4181   -6.1339    3.0608 Si      1  UNL1        0.0000
      3 SI         -0.3377   -6.5916    5.6260 Si      1  UNL1        0.0000
      4 O          -0.1249   -9.5174    0.8883 O.2     1  UNL1        0.0000
      5 N          -1.9299   -9.0243    2.3060 N.2     1  UNL1        0.0000
      6 C          -1.4167   -9.3063    1.1743 C.2     1  UNL1        0.0000
      7 C           0.8195   -9.6053    1.9520 C.3     1  UNL1        0.0000
      8 H           0.7042  -10.5995    2.4188 H       1  UNL1        0.0000
      9 C           0.5981   -8.5356    3.0182 C.3     1  UNL1        0.0000
     10 H           0.5929   -7.5411    2.5660 H       1  UNL1        0.0000
     11 H           1.3872   -8.5984    3.7652 H       1  UNL1        0.0000
     12 C          -2.2961   -9.4208    0.0017 C.ar    1  UNL1        0.0000
     13 C          -3.6524   -9.6815    0.1893 C.ar    1  UNL1        0.0000
     14 H          -4.0241   -9.8082    1.1938 H       1  UNL1        0.0000
     15 C          -4.4920   -9.7917   -0.9020 C.ar    1  UNL1        0.0000
     16 H          -5.5411   -9.9992   -0.7539 H       1  UNL1        0.0000
     17 C          -3.9890   -9.6407   -2.1850 C.ar    1  UNL1        0.0000
     18 H          -4.6473   -9.7265   -3.0368 H       1  UNL1        0.0000
     19 C          -2.6405   -9.3853   -2.3757 C.ar    1  UNL1        0.0000
     20 H          -2.2486   -9.2708   -3.3756 H       1  UNL1        0.0000
     21 C          -1.7929   -9.2790   -1.2890 C.ar    1  UNL1        0.0000
     22 H          -0.7414   -9.0812   -1.4294 H       1  UNL1        0.0000
     23 C           2.1996   -9.5087    1.3130 C.3     1  UNL1        0.0000
     24 H           2.3390   -8.5227    0.8759 H       1  UNL1        0.0000
     25 H           2.2951  -10.2545    0.5283 H       1  UNL1        0.0000
     26 H           2.9667   -9.6807    2.0623 H       1  UNL1        0.0000
     27 C          -1.6453   -7.2932    4.3951 C.3     1  UNL1        0.0000
     28 H          -2.4953   -7.5896    5.0212 H       1  UNL1        0.0000
     29 C          -4.0561   -6.8544    2.3967 C.3     1  UNL1        0.0000
     30 H          -4.4245   -7.6524    3.0341 H       1  UNL1        0.0000
     31 H          -3.9311   -7.2710    1.4019 H       1  UNL1        0.0000
     32 H          -4.8267   -6.0899    2.3434 H       1  UNL1        0.0000
     33 C          -1.2478   -5.7316    1.6046 C.3     1  UNL1        0.0000
     34 H          -1.0441   -6.6083    0.9981 H       1  UNL1        0.0000
     35 H          -0.3005   -5.3144    1.9319 H       1  UNL1        0.0000
     36 H          -1.7167   -4.9970    0.9567 H       1  UNL1        0.0000
     37 C          -2.8597   -4.4850    3.9168 C.3     1  UNL1        0.0000
     38 H          -1.9974   -3.9766    4.3318 H       1  UNL1        0.0000
     39 H          -3.5718   -4.6378    4.7205 H       1  UNL1        0.0000
     40 H          -3.3206   -3.8139    3.2001 H       1  UNL1        0.0000
     41 C          -1.2973   -5.7423    7.0372 C.3     1  UNL1        0.0000
     42 H          -1.9076   -6.4545    7.5842 H       1  UNL1        0.0000
     43 H          -1.9518   -4.9589    6.6730 H       1  UNL1        0.0000
     44 H          -0.6088   -5.2923    7.7449 H       1  UNL1        0.0000
     45 C           0.8158   -5.3250    4.7774 C.3     1  UNL1        0.0000
     46 H           0.2604   -4.5444    4.2702 H       1  UNL1        0.0000
     47 H           1.4800   -5.7848    4.0525 H       1  UNL1        0.0000
     48 H           1.4387   -4.8460    5.5262 H       1  UNL1        0.0000
     49 C           0.7883   -7.9243    6.4108 C.3     1  UNL1        0.0000
     50 H           1.8388   -7.7259    6.2170 H       1  UNL1        0.0000
     51 H           0.5619   -8.9202    6.0374 H       1  UNL1        0.0000
     52 H           0.6612   -7.9515    7.4889 H       1  UNL1        0.0000
@<TRIPOS>BOND
     1    20    19    1
     2    18    17    1
     3    19    17   ar
     4    19    21   ar
     5    17    15   ar
     6    22    21    1
     7    21    12   ar
     8    15    16    1
     9    15    13   ar
    10    12    13   ar
    11    12     6    1
    12    13    14    1
    13    25    23    1
    14    24    23    1
    15     4     6    1
    16     4     7    1
    17    36    33    1
    18    34    33    1
    19     6     5    2
    20    23     7    1
    21    23    26    1
    22    31    29    1
    23    33    35    1
    24    33     2    1
    25     7     8    1
    26     7     9    1
    27     5     1    1
    28    32    29    1
    29    29    30    1
    30    29     2    1
    31    10     9    1
    32     9     1    1
    33     9    11    1
    34     2    37    1
    35     2    27    1
    36    40    37    1
    37     1    27    1
    38    37    38    1
    39    37    39    1
    40    47    45    1
    41    46    45    1
    42    27    28    1
    43    27     3    1
    44    45    48    1
    45    45     3    1
    46     3    49    1
    47     3    41    1
    48    51    49    1
    49    50    49    1
    50    49    52    1
    51    43    41    1
    52    41    42    1
    53    41    44    1
