@<TRIPOS>MOLECULE
1
 53 55 0 0 0
SMALL
GASTEIGER

@<TRIPOS>ATOM
      1 P           2.4707   15.6265    3.5377 P.3     1  UNL1        0.0000
      2 SI          1.1951   13.9521    5.7913 Si      1  UNL1        0.0000
      3 SI         -0.3981   16.4004    4.1736 Si      1  UNL1        0.0000
      4 S           6.1524   13.4347    5.1328 S.2     1  UNL1        0.0000
      5 N           3.6846   14.7910    4.3073 N.pl3   1  UNL1        0.0000
      6 C           4.5174   15.6025    4.8986 C.2     1  UNL1        0.0000
      7 C           4.1579   17.0217    4.8665 C.2     1  UNL1        0.0000
      8 C           2.9513   17.1918    4.2686 C.3     1  UNL1        0.0000
      9 C           5.6762   15.0564    5.5427 C.ar    1  UNL1        0.0000
     10 C           6.4828   15.5747    6.5260 C.ar    1  UNL1        0.0000
     11 C           7.4841   14.6791    6.9364 C.ar    1  UNL1        0.0000
     12 C           7.4324   13.4929    6.2684 C.ar    1  UNL1        0.0000
     13 C           5.0059   18.1106    5.3537 C.ar    1  UNL1        0.0000
     14 C           6.3112   18.2435    4.8835 C.ar    1  UNL1        0.0000
     15 C           7.0990   19.2961    5.3089 C.ar    1  UNL1        0.0000
     16 C           6.5985   20.2226    6.2096 C.ar    1  UNL1        0.0000
     17 C           5.3007   20.0992    6.6766 C.ar    1  UNL1        0.0000
     18 C           4.5043   19.0537    6.2459 C.ar    1  UNL1        0.0000
     19 C           0.8977   14.9784    4.1863 C.3     1  UNL1        0.0000
     20 C          -0.5085   13.4950    6.5202 C.3     1  UNL1        0.0000
     21 C           2.0764   12.3225    5.3467 C.3     1  UNL1        0.0000
     22 C           2.1525   14.9620    7.1004 C.3     1  UNL1        0.0000
     23 C          -2.1325   15.6252    4.0348 C.3     1  UNL1        0.0000
     24 C          -0.1661   17.5581    2.6736 C.3     1  UNL1        0.0000
     25 C          -0.2462   17.4116    5.7855 C.3     1  UNL1        0.0000
     26 H           2.5037   18.1509    4.0662 H       1  UNL1        0.0000
     27 H           6.3497   16.5528    6.9506 H       1  UNL1        0.0000
     28 H           8.2127   14.9069    7.6937 H       1  UNL1        0.0000
     29 H           8.0788   12.6451    6.3810 H       1  UNL1        0.0000
     30 H           6.6966   17.5246    4.1758 H       1  UNL1        0.0000
     31 H           8.1075   19.3946    4.9356 H       1  UNL1        0.0000
     32 H           7.2179   21.0413    6.5440 H       1  UNL1        0.0000
     33 H           4.9059   20.8212    7.3762 H       1  UNL1        0.0000
     34 H           3.4921   18.9534    6.6116 H       1  UNL1        0.0000
     35 H           0.5889   14.2646    3.4156 H       1  UNL1        0.0000
     36 H          -0.3743   12.8243    7.3617 H       1  UNL1        0.0000
     37 H          -1.1315   12.9838    5.7948 H       1  UNL1        0.0000
     38 H          -1.0546   14.3608    6.8773 H       1  UNL1        0.0000
     39 H           1.4725   11.7219    4.6719 H       1  UNL1        0.0000
     40 H           2.2632   11.7266    6.2355 H       1  UNL1        0.0000
     41 H           3.0288   12.5082    4.8612 H       1  UNL1        0.0000
     42 H           3.1493   14.5580    7.2466 H       1  UNL1        0.0000
     43 H           2.2645   15.9998    6.8035 H       1  UNL1        0.0000
     44 H           1.6471   14.9435    8.0610 H       1  UNL1        0.0000
     45 H          -2.3835   15.0210    4.8981 H       1  UNL1        0.0000
     46 H          -2.2168   14.9960    3.1543 H       1  UNL1        0.0000
     47 H          -2.8824   16.4047    3.9512 H       1  UNL1        0.0000
     48 H          -0.4193   18.5853    2.9210 H       1  UNL1        0.0000
     49 H          -0.8022   17.2606    1.8451 H       1  UNL1        0.0000
     50 H           0.8592   17.5467    2.3115 H       1  UNL1        0.0000
     51 H           0.7258   17.8863    5.8775 H       1  UNL1        0.0000
     52 H          -0.9970   18.1952    5.8132 H       1  UNL1        0.0000
     53 H          -0.3896   16.7879    6.6614 H       1  UNL1        0.0000
@<TRIPOS>BOND
     1    49    24    1
     2    50    24    1
     3    24    48    1
     4    24     3    1
     5    46    23    1
     6    35    19    1
     7     1    19    1
     8     1     8    1
     9     1     5    1
    10    47    23    1
    11    23     3    1
    12    23    45    1
    13    26     8    1
    14     3    19    1
    15     3    25    1
    16    30    14    1
    17    19     2    1
    18     8     7    1
    19     5     6    1
    20    39    21    1
    21    41    21    1
    22     7     6    2
    23     7    13    1
    24    14    15   ar
    25    14    13   ar
    26     6     9    1
    27    31    15    1
    28     4     9   ar
    29     4    12   ar
    30    15    16   ar
    31    21     2    1
    32    21    40    1
    33    13    18   ar
    34     9    10   ar
    35    25    52    1
    36    25    51    1
    37    25    53    1
    38     2    20    1
    39     2    22    1
    40    37    20    1
    41    16    32    1
    42    16    17   ar
    43    18    34    1
    44    18    17   ar
    45    12    29    1
    46    12    11   ar
    47    20    38    1
    48    20    36    1
    49    10    11   ar
    50    10    27    1
    51    17    33    1
    52    43    22    1
    53    11    28    1
    54    22    42    1
    55    22    44    1
