@<TRIPOS>MOLECULE
1
 13 12 0 0 0
SMALL
GASTEIGER

@<TRIPOS>ATOM
      1 P          12.4246    0.9205    2.9403 P.3     1  UNL1       -0.1154
      2 C          13.3897   -0.5695    2.4591 C.3     1  UNL1       -0.0447
      3 C          13.1547    1.1626    4.6208 C.3     1  UNL1       -0.0447
      4 C          10.8519    0.0736    3.4141 C.3     1  UNL1       -0.0447
      5 H          13.3419   -1.3375    3.2306 H       1  UNL1        0.0277
      6 H          12.9978   -0.9643    1.5252 H       1  UNL1        0.0277
      7 H          14.4256   -0.2758    2.3031 H       1  UNL1        0.0277
      8 H          13.1022    0.2472    5.2089 H       1  UNL1        0.0277
      9 H          14.1968    1.4531    4.4999 H       1  UNL1        0.0277
     10 H          12.6364    1.9600    5.1468 H       1  UNL1        0.0277
     11 H          11.0504   -0.7648    4.0811 H       1  UNL1        0.0277
     12 H          10.1806    0.7729    3.9093 H       1  UNL1        0.0277
     13 H          10.3734   -0.2941    2.5085 H       1  UNL1        0.0277
@<TRIPOS>BOND
     1     6     2    1
     2     7     2    1
     3     2     1    1
     4     2     5    1
     5    13     4    1
     6     1     4    1
     7     1     3    1
     8     4    12    1
     9     4    11    1
    10     9     3    1
    11     3    10    1
    12     3     8    1
