@<TRIPOS>MOLECULE
1
 13 12 0 0 0
SMALL
GASTEIGER

@<TRIPOS>ATOM
      1 P          11.1348    4.0989    3.0001 P.3     1  UNL1       -0.1154
      2 C          10.6802    4.0208    4.7969 C.3     1  UNL1       -0.0447
      3 C           9.5123    3.5815    2.2894 C.3     1  UNL1       -0.0447
      4 C          10.9306    5.9244    2.7902 C.3     1  UNL1       -0.0447
      5 H           9.7913    4.6166    5.0024 H       1  UNL1        0.0277
      6 H          10.4886    2.9879    5.0819 H       1  UNL1        0.0277
      7 H          11.5067    4.3984    5.3980 H       1  UNL1        0.0277
      8 H           8.6858    4.1092    2.7649 H       1  UNL1        0.0277
      9 H           9.5127    3.7932    1.2215 H       1  UNL1        0.0277
     10 H           9.3813    2.5095    2.4199 H       1  UNL1        0.0277
     11 H           9.9330    6.2431    3.0916 H       1  UNL1        0.0277
     12 H          11.6683    6.4486    3.3950 H       1  UNL1        0.0277
     13 H          11.0872    6.1829    1.7444 H       1  UNL1        0.0277
@<TRIPOS>BOND
     1     9     3    1
     2    13     4    1
     3     3    10    1
     4     3     8    1
     5     3     1    1
     6     4     1    1
     7     4    11    1
     8     4    12    1
     9     1     2    1
    10     2     5    1
    11     2     6    1
    12     2     7    1
