@<TRIPOS>MOLECULE
1
 13 12 0 0 0
SMALL
GASTEIGER

@<TRIPOS>ATOM
      1 P          14.1576    4.4709    1.0556 P.3     1  UNL1       -0.1154
      2 C          14.2340    5.2932   -0.5899 C.3     1  UNL1       -0.0447
      3 C          15.8721    3.7956    1.0992 C.3     1  UNL1       -0.0447
      4 C          14.4260    5.9595    2.1232 C.3     1  UNL1       -0.0447
      5 H          15.1180    5.9256   -0.6633 H       1  UNL1        0.0277
      6 H          14.2705    4.5229   -1.3559 H       1  UNL1        0.0277
      7 H          13.3438    5.8972   -0.7500 H       1  UNL1        0.0277
      8 H          16.6071    4.5665    0.8724 H       1  UNL1        0.0277
      9 H          16.0692    3.3864    2.0879 H       1  UNL1        0.0277
     10 H          15.9472    2.9928    0.3694 H       1  UNL1        0.0277
     11 H          15.3691    6.4468    1.8785 H       1  UNL1        0.0277
     12 H          13.6133    6.6670    1.9761 H       1  UNL1        0.0277
     13 H          14.4398    5.6541    3.1681 H       1  UNL1        0.0277
@<TRIPOS>BOND
     1     6     2    1
     2     7     2    1
     3     5     2    1
     4     2     1    1
     5    10     3    1
     6     8     3    1
     7     1     3    1
     8     1     4    1
     9     3     9    1
    10    11     4    1
    11    12     4    1
    12     4    13    1
