@<TRIPOS>MOLECULE
1
 13 12 0 0 0
SMALL
GASTEIGER

@<TRIPOS>ATOM
      1 P          -0.0535   11.2547    3.5924 P.3     1  UNL1       -0.1154
      2 C           1.5561   12.1230    3.4674 C.3     1  UNL1       -0.0447
      3 C          -0.3673   11.6335    5.3577 C.3     1  UNL1       -0.0447
      4 C          -1.1501   12.5045    2.7980 C.3     1  UNL1       -0.0447
      5 H           1.4196   13.1808    3.6933 H       1  UNL1        0.0277
      6 H           2.2323   11.6775    4.1955 H       1  UNL1        0.0277
      7 H           1.9922   12.0103    2.4792 H       1  UNL1        0.0277
      8 H          -0.1012   12.6706    5.5626 H       1  UNL1        0.0277
      9 H          -1.4134   11.4742    5.6042 H       1  UNL1        0.0277
     10 H           0.2512   10.9697    5.9606 H       1  UNL1        0.0277
     11 H          -1.0436   13.4724    3.2873 H       1  UNL1        0.0277
     12 H          -0.8838   12.5948    1.7459 H       1  UNL1        0.0277
     13 H          -2.1841   12.1726    2.8697 H       1  UNL1        0.0277
@<TRIPOS>BOND
     1    12     4    1
     2     7     2    1
     3     4    13    1
     4     4    11    1
     5     4     1    1
     6     2     1    1
     7     2     5    1
     8     2     6    1
     9     1     3    1
    10     3     8    1
    11     3     9    1
    12     3    10    1
