@<TRIPOS>MOLECULE
1
 13 12 0 0 0
SMALL
GASTEIGER

@<TRIPOS>ATOM
      1 P           0.0780    9.4516    0.7260 P.3     1  UNL1       -0.1154
      2 C           0.6526    7.9973   -0.2303 C.3     1  UNL1       -0.0447
      3 C          -1.2882   10.0131   -0.3791 C.3     1  UNL1       -0.0447
      4 C           1.3242   10.6887    0.1933 C.3     1  UNL1       -0.0447
      5 H           0.9054    8.2822   -1.2513 H       1  UNL1        0.0277
      6 H           1.5241    7.5734    0.2642 H       1  UNL1        0.0277
      7 H          -0.1341    7.2459   -0.2437 H       1  UNL1        0.0277
      8 H          -0.8784   10.3084   -1.3447 H       1  UNL1        0.0277
      9 H          -2.0016    9.2080   -0.5273 H       1  UNL1        0.0277
     10 H          -1.7990   10.8614    0.0737 H       1  UNL1        0.0277
     11 H           1.5036   10.5992   -0.8781 H       1  UNL1        0.0277
     12 H           0.9555   11.6887    0.4171 H       1  UNL1        0.0277
     13 H           2.2581   10.5210    0.7223 H       1  UNL1        0.0277
@<TRIPOS>BOND
     1     8     3    1
     2     5     2    1
     3    11     4    1
     4     9     3    1
     5     3    10    1
     6     3     1    1
     7     7     2    1
     8     2     6    1
     9     2     1    1
    10     4    12    1
    11     4    13    1
    12     4     1    1
