@<TRIPOS>MOLECULE
1
 13 12 0 0 0
SMALL
GASTEIGER

@<TRIPOS>ATOM
      1 P          12.7180    5.2589   -1.1449 P.3     1  UNL1       -0.1154
      2 C          11.7256    6.5937   -0.3662 C.3     1  UNL1       -0.0447
      3 C          13.3151    6.1231   -2.6428 C.3     1  UNL1       -0.0447
      4 C          11.3838    4.2898   -1.9565 C.3     1  UNL1       -0.0447
      5 H          11.0222    6.1538    0.3389 H       1  UNL1        0.0277
      6 H          11.1775    7.1466   -1.1285 H       1  UNL1        0.0277
      7 H          12.3851    7.2736    0.1700 H       1  UNL1        0.0277
      8 H          13.9464    6.9649   -2.3730 H       1  UNL1        0.0277
      9 H          12.4609    6.4856   -3.2143 H       1  UNL1        0.0277
     10 H          13.8859    5.4208   -3.2483 H       1  UNL1        0.0277
     11 H          10.8964    3.6255   -1.2486 H       1  UNL1        0.0277
     12 H          11.8369    3.6931   -2.7462 H       1  UNL1        0.0277
     13 H          10.6499    4.9687   -2.3895 H       1  UNL1        0.0277
@<TRIPOS>BOND
     1    10     3    1
     2     9     3    1
     3    12     4    1
     4     3     8    1
     5     3     1    1
     6    13     4    1
     7     4    11    1
     8     4     1    1
     9     1     2    1
    10     6     2    1
    11     2     7    1
    12     2     5    1
