@<TRIPOS>MOLECULE
1
 13 12 0 0 0
SMALL
GASTEIGER

@<TRIPOS>ATOM
      1 P          12.8395    3.5915    1.8394 P.3     1  UNL1       -0.1154
      2 C          12.2542    4.8429    3.0494 C.3     1  UNL1       -0.0447
      3 C          13.4871    2.3198    2.9921 C.3     1  UNL1       -0.0447
      4 C          11.2052    2.8494    1.4302 C.3     1  UNL1       -0.0447
      5 H          11.7240    5.6382    2.5299 H       1  UNL1        0.0277
      6 H          13.0983    5.2748    3.5793 H       1  UNL1        0.0277
      7 H          11.5858    4.3690    3.7680 H       1  UNL1        0.0277
      8 H          14.2681    2.7608    3.6073 H       1  UNL1        0.0277
      9 H          13.9213    1.4976    2.4255 H       1  UNL1        0.0277
     10 H          12.6934    1.9493    3.6402 H       1  UNL1        0.0277
     11 H          10.5685    3.6134    0.9876 H       1  UNL1        0.0277
     12 H          10.7316    2.4771    2.3382 H       1  UNL1        0.0277
     13 H          11.3299    2.0348    0.7195 H       1  UNL1        0.0277
@<TRIPOS>BOND
     1    13     4    1
     2    11     4    1
     3     4     1    1
     4     4    12    1
     5     1     3    1
     6     1     2    1
     7     9     3    1
     8     5     2    1
     9     3     8    1
    10     3    10    1
    11     2     6    1
    12     2     7    1
