@<TRIPOS>MOLECULE
1
 13 12 0 0 0
SMALL
GASTEIGER

@<TRIPOS>ATOM
      1 P           2.9872    6.3097   10.0501 P.3     1  UNL1       -0.1154
      2 C           2.8310    4.4922    9.9318 C.3     1  UNL1       -0.0447
      3 C           2.0940    6.7918    8.5049 C.3     1  UNL1       -0.0447
      4 C           4.7263    6.4453    9.4859 C.3     1  UNL1       -0.0447
      5 H           1.8534    4.1566   10.2625 H       1  UNL1        0.0277
      6 H           3.5793    4.0563   10.5881 H       1  UNL1        0.0277
      7 H           3.0066    4.1654    8.9070 H       1  UNL1        0.0277
      8 H           2.0440    7.8740    8.4194 H       1  UNL1        0.0277
      9 H           1.0818    6.3955    8.5476 H       1  UNL1        0.0277
     10 H           2.6030    6.3817    7.6340 H       1  UNL1        0.0277
     11 H           4.9666    7.4643    9.1963 H       1  UNL1        0.0277
     12 H           4.8826    5.7837    8.6342 H       1  UNL1        0.0277
     13 H           5.3758    6.1404   10.3052 H       1  UNL1        0.0277
@<TRIPOS>BOND
     1    10     3    1
     2     8     3    1
     3     3     9    1
     4     3     1    1
     5    12     4    1
     6     7     2    1
     7    11     4    1
     8     4     1    1
     9     4    13    1
    10     2     1    1
    11     2     5    1
    12     2     6    1
