@<TRIPOS>MOLECULE
1
 13 12 0 0 0
SMALL
GASTEIGER

@<TRIPOS>ATOM
      1 P           0.2000    6.8972   11.9980 P.3     1  UNL1       -0.1154
      2 C          -0.9598    7.6406   10.7702 C.3     1  UNL1       -0.0447
      3 C          -0.2874    5.1380   11.8048 C.3     1  UNL1       -0.0447
      4 C          -0.6962    7.2946   13.5447 C.3     1  UNL1       -0.0447
      5 H          -0.6073    7.4360    9.7623 H       1  UNL1        0.0277
      6 H          -1.0087    8.7161   10.9120 H       1  UNL1        0.0277
      7 H          -1.9536    7.2149   10.9028 H       1  UNL1        0.0277
      8 H          -0.1707    4.8441   10.7635 H       1  UNL1        0.0277
      9 H          -1.3281    5.0060   12.0983 H       1  UNL1        0.0277
     10 H           0.3549    4.5207   12.4282 H       1  UNL1        0.0277
     11 H          -0.6886    8.3684   13.7081 H       1  UNL1        0.0277
     12 H          -0.1858    6.8132   14.3764 H       1  UNL1        0.0277
     13 H          -1.7263    6.9462   13.4812 H       1  UNL1        0.0277
@<TRIPOS>BOND
     1     5     2    1
     2     8     3    1
     3     2     7    1
     4     2     6    1
     5     2     1    1
     6     3     1    1
     7     3     9    1
     8     3    10    1
     9     1     4    1
    10    13     4    1
    11     4    11    1
    12     4    12    1
