@<TRIPOS>MOLECULE
3
 110 113 0 0 0
SMALL
GASTEIGER

@<TRIPOS>ATOM
      1 SI         -0.2437    5.4710   12.1777 Si      1  UNL1        0.0000
      2 H           0.9278    4.7827   12.7604 H       1  UNL1        0.0000
      3 P          -1.6043    4.5852   10.7214 P.3     1  UNL1        0.0000
      4 H          -0.7488    4.6331    9.6500 H       1  UNL1        0.0000
      5 N          -1.4638    4.7201   14.7355 N.pl3   1  UNL1        0.0000
      6 N          -2.7486    5.9332   13.5164 N.pl3   1  UNL1        0.0000
      7 C           0.4565    7.2295   11.9655 C.ar    1  UNL1        0.0000
      8 C           0.6885    7.7412   10.6852 C.ar    1  UNL1        0.0000
      9 C           1.3007    8.9778   10.5107 C.ar    1  UNL1        0.0000
     10 H           1.4717    9.3409    9.5075 H       1  UNL1        0.0000
     11 C           1.7224    9.7124   11.6004 C.ar    1  UNL1        0.0000
     12 H           2.2117   10.6657   11.4631 H       1  UNL1        0.0000
     13 C           1.5478    9.1942   12.8690 C.ar    1  UNL1        0.0000
     14 H           1.9329    9.7265   13.7277 H       1  UNL1        0.0000
     15 C           0.9171    7.9689   13.0617 C.ar    1  UNL1        0.0000
     16 C           0.8727    7.4757   14.4634 C.ar    1  UNL1        0.0000
     17 C           1.9496    6.7205   14.9448 C.ar    1  UNL1        0.0000
     18 C           1.9803    6.3662   16.2866 C.ar    1  UNL1        0.0000
     19 H           2.8183    5.8020   16.6676 H       1  UNL1        0.0000
     20 C           0.9792    6.7457   17.1649 C.ar    1  UNL1        0.0000
     21 C          -0.0728    7.5041   16.6735 C.ar    1  UNL1        0.0000
     22 H          -0.8421    7.8330   17.3536 H       1  UNL1        0.0000
     23 C          -0.1380    7.8840   15.3414 C.ar    1  UNL1        0.0000
     24 C          -0.8313   10.2661   15.0533 C.3     1  UNL1        0.0000
     25 H          -0.5358   10.4480   16.0846 H       1  UNL1        0.0000
     26 H          -1.6646   10.9224   14.8102 H       1  UNL1        0.0000
     27 H           0.0005   10.5188   14.4042 H       1  UNL1        0.0000
     28 C          -1.2469    8.8011   14.8712 C.3     1  UNL1        0.0000
     29 H          -1.4034    8.6213   13.8021 H       1  UNL1        0.0000
     30 C          -2.5674    8.5799   15.6139 C.3     1  UNL1        0.0000
     31 H          -2.7912    7.5225   15.7262 H       1  UNL1        0.0000
     32 H          -3.3811    9.0585   15.0717 H       1  UNL1        0.0000
     33 H          -2.5318    9.0291   16.6037 H       1  UNL1        0.0000
     34 C           1.0762    6.4003   18.6322 C.3     1  UNL1        0.0000
     35 H           1.9790    5.7977   18.7821 H       1  UNL1        0.0000
     36 C           1.2155    7.6765   19.4660 C.3     1  UNL1        0.0000
     37 H           2.0611    8.2646   19.1166 H       1  UNL1        0.0000
     38 H           1.3748    7.4291   20.5133 H       1  UNL1        0.0000
     39 H           0.3191    8.2873   19.3905 H       1  UNL1        0.0000
     40 C          -0.1235    5.5784   19.1070 C.3     1  UNL1        0.0000
     41 H          -1.0554    6.1096   18.9260 H       1  UNL1        0.0000
     42 H          -0.0443    5.3829   20.1742 H       1  UNL1        0.0000
     43 H          -0.1588    4.6204   18.5907 H       1  UNL1        0.0000
     44 C           3.1285    6.3838   14.0577 C.3     1  UNL1        0.0000
     45 H           2.8342    6.5346   13.0155 H       1  UNL1        0.0000
     46 C           4.2753    7.3520   14.3679 C.3     1  UNL1        0.0000
     47 H           4.5856    7.2563   15.4062 H       1  UNL1        0.0000
     48 H           3.9646    8.3792   14.1945 H       1  UNL1        0.0000
     49 H           5.1299    7.1394   13.7294 H       1  UNL1        0.0000
     50 C           3.6143    4.9410   14.2055 C.3     1  UNL1        0.0000
     51 H           4.0219    4.7551   15.1958 H       1  UNL1        0.0000
     52 H           4.4024    4.7496   13.4804 H       1  UNL1        0.0000
     53 H           2.8112    4.2309   14.0236 H       1  UNL1        0.0000
     54 C           0.3814    6.9691    9.4585 C.ar    1  UNL1        0.0000
     55 C           1.2783    5.9875    9.0256 C.ar    1  UNL1        0.0000
     56 C           1.0128    5.3052    7.8469 C.ar    1  UNL1        0.0000
     57 H           1.6956    4.5382    7.5127 H       1  UNL1        0.0000
     58 C          -0.1206    5.5649    7.0933 C.ar    1  UNL1        0.0000
     59 C          -0.9830    6.5604    7.5251 C.ar    1  UNL1        0.0000
     60 H          -1.8645    6.7821    6.9449 H       1  UNL1        0.0000
     61 C          -0.7491    7.2671    8.6937 C.ar    1  UNL1        0.0000
     62 C          -1.7300    8.3311    9.1301 C.3     1  UNL1        0.0000
     63 H          -1.4943    8.6133   10.1626 H       1  UNL1        0.0000
     64 C          -1.5898    9.5793    8.2547 C.3     1  UNL1        0.0000
     65 H          -0.5927   10.0029    8.3466 H       1  UNL1        0.0000
     66 H          -2.3138   10.3343    8.5551 H       1  UNL1        0.0000
     67 H          -1.7606    9.3321    7.2095 H       1  UNL1        0.0000
     68 C          -3.1679    7.8070    9.0854 C.3     1  UNL1        0.0000
     69 H          -3.5408    7.7846    8.0648 H       1  UNL1        0.0000
     70 H          -3.8250    8.4510    9.6671 H       1  UNL1        0.0000
     71 H          -3.2083    6.7966    9.4871 H       1  UNL1        0.0000
     72 C          -0.4241    4.7496    5.8613 C.3     1  UNL1        0.0000
     73 H           0.4019    4.0469    5.7050 H       1  UNL1        0.0000
     74 C          -1.7035    3.9380    6.0788 C.3     1  UNL1        0.0000
     75 H          -1.6170    3.3304    6.9775 H       1  UNL1        0.0000
     76 H          -1.8846    3.2801    5.2313 H       1  UNL1        0.0000
     77 H          -2.5624    4.5943    6.1970 H       1  UNL1        0.0000
     78 C          -0.5409    5.6325    4.6178 C.3     1  UNL1        0.0000
     79 H          -0.6965    5.0178    3.7337 H       1  UNL1        0.0000
     80 H           0.3680    6.2148    4.4794 H       1  UNL1        0.0000
     81 H          -1.3786    6.3198    4.7066 H       1  UNL1        0.0000
     82 C           2.5297    5.6606    9.8067 C.3     1  UNL1        0.0000
     83 H           2.4760    6.1662   10.7753 H       1  UNL1        0.0000
     84 C           3.7609    6.1913    9.0674 C.3     1  UNL1        0.0000
     85 H           4.6655    5.9645    9.6280 H       1  UNL1        0.0000
     86 H           3.6909    7.2702    8.9451 H       1  UNL1        0.0000
     87 H           3.8415    5.7383    8.0821 H       1  UNL1        0.0000
     88 C           2.6568    4.1582   10.0656 C.3     1  UNL1        0.0000
     89 H           2.8924    3.6187    9.1519 H       1  UNL1        0.0000
     90 H           1.7254    3.7605   10.4667 H       1  UNL1        0.0000
     91 H           3.4510    3.9675   10.7844 H       1  UNL1        0.0000
     92 C          -1.4957    5.4809   13.6358 C.3     1  UNL1        0.0000
     93 C          -0.3397    4.0041   15.2644 C.3     1  UNL1        0.0000
     94 H          -0.4382    2.9375   15.0538 H       1  UNL1        0.0000
     95 H          -0.2878    4.1529   16.3420 H       1  UNL1        0.0000
     96 H           0.5746    4.3777   14.8178 H       1  UNL1        0.0000
     97 C          -2.7075    4.6843   15.3194 C.2     1  UNL1        0.0000
     98 C          -2.9898    3.9099   16.5516 C.3     1  UNL1        0.0000
     99 H          -4.0442    3.9791   16.8003 H       1  UNL1        0.0000
    100 H          -2.4078    4.2880   17.3918 H       1  UNL1        0.0000
    101 H          -2.7397    2.8607   16.4025 H       1  UNL1        0.0000
    102 C          -3.5248    5.4520   14.5411 C.2     1  UNL1        0.0000
    103 C          -4.9750    5.7464   14.6440 C.3     1  UNL1        0.0000
    104 H          -5.3962    5.2510   15.5132 H       1  UNL1        0.0000
    105 H          -5.4918    5.3842   13.7560 H       1  UNL1        0.0000
    106 H          -5.1560    6.8174   14.7312 H       1  UNL1        0.0000
    107 C          -3.2483    6.8183   12.5050 C.3     1  UNL1        0.0000
    108 H          -2.4283    7.1482   11.8741 H       1  UNL1        0.0000
    109 H          -3.7276    7.6798   12.9724 H       1  UNL1        0.0000
    110 H          -3.9778    6.2988   11.8829 H       1  UNL1        0.0000
@<TRIPOS>BOND
     1    79    78    1
     2    80    78    1
     3    78    81    1
     4    78    72    1
     5    76    74    1
     6    73    72    1
     7    72    74    1
     8    72    58    1
     9    74    77    1
    10    74    75    1
    11    60    59    1
    12    58    59   ar
    13    58    56   ar
    14    67    64    1
    15    57    56    1
    16    59    61   ar
    17    56    55   ar
    18    69    68    1
    19    87    84    1
    20    64    65    1
    21    64    66    1
    22    64    62    1
    23    61    62    1
    24    61    54   ar
    25    86    84    1
    26    55    54   ar
    27    55    82    1
    28    84    85    1
    29    84    82    1
    30    68    62    1
    31    68    71    1
    32    68    70    1
    33    62    63    1
    34    89    88    1
    35    54     8    1
    36    10     9    1
    37     4     3    1
    38    82    88    1
    39    82    83    1
    40    88    90    1
    41    88    91    1
    42     9     8   ar
    43     9    11   ar
    44     8     7   ar
    45     3     1    1
    46    12    11    1
    47    11    13   ar
    48   108   107    1
    49   110   107    1
    50     7     1    1
    51     7    15   ar
    52     1     2    1
    53     1    92    1
    54   107   109    1
    55   107     6    1
    56    13    15   ar
    57    13    14    1
    58    45    44    1
    59    15    16    1
    60    52    50    1
    61     6    92    1
    62     6   102    1
    63    92     5    1
    64    49    46    1
    65   105   103    1
    66    29    28    1
    67    53    50    1
    68    44    50    1
    69    44    46    1
    70    44    17    1
    71    48    46    1
    72    50    51    1
    73    46    47    1
    74    27    24    1
    75    16    17   ar
    76    16    23   ar
    77   102   103    1
    78   102    97    2
    79   103   106    1
    80   103   104    1
    81     5    93    1
    82     5    97    1
    83    26    24    1
    84    96    93    1
    85    28    24    1
    86    28    23    1
    87    28    30    1
    88    17    18   ar
    89    24    25    1
    90    94    93    1
    91    32    30    1
    92    93    95    1
    93    97    98    1
    94    23    21   ar
    95    30    31    1
    96    30    33    1
    97    18    19    1
    98    18    20   ar
    99   101    98    1
   100    98    99    1
   101    98   100    1
   102    21    20   ar
   103    21    22    1
   104    20    34    1
   105    43    40    1
   106    34    35    1
   107    34    40    1
   108    34    36    1
   109    41    40    1
   110    40    42    1
   111    37    36    1
   112    39    36    1
   113    36    38    1
