@<TRIPOS>MOLECULE
1
 58 61 0 0 0
SMALL
GASTEIGER

@<TRIPOS>ATOM
      1 P           7.5107   10.5271    9.6676 P.3     1  UNL1        0.0000
      2 SI          9.8883    8.8381    9.8513 Si      1  UNL1        0.0000
      3 F           6.2011    6.5344   11.6127 F       1  UNL1        0.0000
      4 F           8.2708    6.9215   11.9762 F       1  UNL1        0.0000
      5 F           7.7060    5.3790   10.5970 F       1  UNL1        0.0000
      6 F           7.2107    6.1845    8.0028 F       1  UNL1        0.0000
      7 F           6.1967    8.0741    7.8816 F       1  UNL1        0.0000
      8 F           5.4368    6.5416    9.1607 F       1  UNL1        0.0000
      9 O           9.0468   10.2505   10.0690 O.3     1  UNL1        0.0000
     10 O           8.7260    7.7377    9.4158 O.3     1  UNL1        0.0000
     11 C           7.4314    7.6590    9.8768 C.3     1  UNL1        0.0000
     12 C           6.8164    8.9525   10.4153 C.3     1  UNL1        0.0000
     13 H           7.0721    9.0205   11.4783 H       1  UNL1        0.0000
     14 H           5.7318    8.9108   10.3080 H       1  UNL1        0.0000
     15 C          10.7496    8.5299   11.5096 C.3     1  UNL1        0.0000
     16 H          11.6061    9.1881   11.6110 H       1  UNL1        0.0000
     17 H          11.1137    7.5095   11.5630 H       1  UNL1        0.0000
     18 H          10.1037    8.7000   12.3674 H       1  UNL1        0.0000
     19 C          11.0087    8.8591    8.3282 C.3     1  UNL1        0.0000
     20 H          10.8473    9.7351    7.7063 H       1  UNL1        0.0000
     21 H          10.8440    7.9797    7.7129 H       1  UNL1        0.0000
     22 H          12.0502    8.8612    8.6292 H       1  UNL1        0.0000
     23 C           7.3964    6.6021   11.0156 C.3     1  UNL1        0.0000
     24 C           6.5711    7.0977    8.7190 C.3     1  UNL1        0.0000
     25 C           7.0310   11.7264   11.0842 C.3     1  UNL1        0.0000
     26 C           7.3982   13.1235   10.6038 C.ar    1  UNL1        0.0000
     27 C           8.5756   13.3267    9.8876 C.ar    1  UNL1        0.0000
     28 H           9.2407   12.4952    9.7072 H       1  UNL1        0.0000
     29 C           8.9352   14.5873    9.4424 C.ar    1  UNL1        0.0000
     30 H           9.8541   14.7152    8.8896 H       1  UNL1        0.0000
     31 C           8.1188   15.6738    9.7002 C.ar    1  UNL1        0.0000
     32 H           8.3893   16.6562    9.3442 H       1  UNL1        0.0000
     33 C           6.9529   15.4875   10.4209 C.ar    1  UNL1        0.0000
     34 H           6.3082   16.3271   10.6335 H       1  UNL1        0.0000
     35 C           6.5967   14.2278   10.8707 C.ar    1  UNL1        0.0000
     36 H           5.6782   14.1154   11.4251 H       1  UNL1        0.0000
     37 C           5.5346   11.6667   11.3119 C.ar    1  UNL1        0.0000
     38 C           4.6697   11.3218   10.2830 C.ar    1  UNL1        0.0000
     39 H           5.0699   11.0687    9.3093 H       1  UNL1        0.0000
     40 C           3.2983   11.3180   10.4716 C.ar    1  UNL1        0.0000
     41 H           2.6498   11.0390    9.6549 H       1  UNL1        0.0000
     42 C           2.7649   11.6760   11.6968 C.ar    1  UNL1        0.0000
     43 H           1.6964   11.6715   11.8482 H       1  UNL1        0.0000
     44 C           3.6140   12.0555   12.7227 C.ar    1  UNL1        0.0000
     45 H           3.2092   12.3585   13.6770 H       1  UNL1        0.0000
     46 C           4.9839   12.0583   12.5314 C.ar    1  UNL1        0.0000
     47 H           5.6325   12.3751   13.3355 H       1  UNL1        0.0000
     48 C           7.8192   11.3253   12.3184 C.ar    1  UNL1        0.0000
     49 C           9.0845   11.8438   12.5767 C.ar    1  UNL1        0.0000
     50 H           9.5000   12.6017   11.9337 H       1  UNL1        0.0000
     51 C           9.8242   11.4171   13.6654 C.ar    1  UNL1        0.0000
     52 H          10.8027   11.8393   13.8390 H       1  UNL1        0.0000
     53 C           9.3208   10.4581   14.5263 C.ar    1  UNL1        0.0000
     54 H           9.9019   10.1190   15.3702 H       1  UNL1        0.0000
     55 C           8.0538    9.9508   14.3001 C.ar    1  UNL1        0.0000
     56 H           7.6334    9.2160   14.9705 H       1  UNL1        0.0000
     57 C           7.3116   10.3808   13.2138 C.ar    1  UNL1        0.0000
     58 H           6.3069    9.9987   13.0975 H       1  UNL1        0.0000
@<TRIPOS>BOND
     1    20    19    1
     2    21    19    1
     3     7    24    1
     4     6    24    1
     5    19    22    1
     6    19     2    1
     7    24     8    1
     8    24    11    1
     9    30    29    1
    10    39    38    1
    11    32    31    1
    12    10     2    1
    13    10    11    1
    14    29    31   ar
    15    29    27   ar
    16    41    40    1
    17     1     9    1
    18     1    12    1
    19     1    25    1
    20    31    33   ar
    21    28    27    1
    22     2     9    1
    23     2    15    1
    24    11    12    1
    25    11    23    1
    26    27    26   ar
    27    38    40   ar
    28    38    37   ar
    29    14    12    1
    30    12    13    1
    31    33    34    1
    32    33    35   ar
    33    40    42   ar
    34     5    23    1
    35    26    35   ar
    36    26    25    1
    37    35    36    1
    38    23     3    1
    39    23     4    1
    40    25    37    1
    41    25    48    1
    42    37    46   ar
    43    15    17    1
    44    15    16    1
    45    15    18    1
    46    42    43    1
    47    42    44   ar
    48    50    49    1
    49    48    49   ar
    50    48    57   ar
    51    46    44   ar
    52    46    47    1
    53    49    51   ar
    54    44    45    1
    55    58    57    1
    56    57    55   ar
    57    51    52    1
    58    51    53   ar
    59    55    53   ar
    60    55    56    1
    61    53    54    1
