@<TRIPOS>MOLECULE
1
 58 62 0 0 0
SMALL
GASTEIGER

@<TRIPOS>ATOM
      1 P           5.7287   12.8583    3.6088 P.3     1  UNL1        0.0000
      2 SI          5.7915   15.7774    4.5534 Si      1  UNL1        0.0000
      3 O           5.6997   14.4500    3.5680 O.3     1  UNL1        0.0000
      4 C           3.9991   12.4702    3.1658 C.ar    1  UNL1        0.0000
      5 C           3.2271   13.3862    2.4602 C.ar    1  UNL1        0.0000
      6 H           3.6468   14.3463    2.1981 H       1  UNL1        0.0000
      7 C           1.9257   13.0729    2.1141 C.ar    1  UNL1        0.0000
      8 H           1.3276   13.7887    1.5696 H       1  UNL1        0.0000
      9 C           1.3903   11.8432    2.4625 C.ar    1  UNL1        0.0000
     10 H           0.3744   11.5992    2.1896 H       1  UNL1        0.0000
     11 C           2.1564   10.9279    3.1655 C.ar    1  UNL1        0.0000
     12 H           1.7393    9.9710    3.4427 H       1  UNL1        0.0000
     13 C           3.4565   11.2418    3.5199 C.ar    1  UNL1        0.0000
     14 H           4.0534   10.5353    4.0836 H       1  UNL1        0.0000
     15 C           6.5165   12.5457    1.9936 C.ar    1  UNL1        0.0000
     16 C           6.3674   11.2912    1.4119 C.ar    1  UNL1        0.0000
     17 H           5.7306   10.5562    1.8864 H       1  UNL1        0.0000
     18 C           7.0192   10.9904    0.2315 C.ar    1  UNL1        0.0000
     19 H           6.8998   10.0150   -0.2168 H       1  UNL1        0.0000
     20 C           7.8287   11.9393   -0.3739 C.ar    1  UNL1        0.0000
     21 H           8.3424   11.7020   -1.2937 H       1  UNL1        0.0000
     22 C           7.9783   13.1897    0.2008 C.ar    1  UNL1        0.0000
     23 H           8.6090   13.9300   -0.2696 H       1  UNL1        0.0000
     24 C           7.3266   13.4941    1.3834 C.ar    1  UNL1        0.0000
     25 H           7.4457   14.4687    1.8354 H       1  UNL1        0.0000
     26 C           7.6214   16.2061    4.7604 C.ar    1  UNL1        0.0000
     27 C           8.6161   15.2653    4.5097 C.ar    1  UNL1        0.0000
     28 H           8.3327   14.2785    4.1651 H       1  UNL1        0.0000
     29 C           9.9522   15.5684    4.6925 C.ar    1  UNL1        0.0000
     30 H          10.7056   14.8200    4.4942 H       1  UNL1        0.0000
     31 C          10.3188   16.8291    5.1324 C.ar    1  UNL1        0.0000
     32 H          11.3613   17.0695    5.2813 H       1  UNL1        0.0000
     33 C           9.3440   17.7823    5.3780 C.ar    1  UNL1        0.0000
     34 H           9.6266   18.7687    5.7162 H       1  UNL1        0.0000
     35 C           8.0096   17.4724    5.1915 C.ar    1  UNL1        0.0000
     36 H           7.2526   18.2218    5.3733 H       1  UNL1        0.0000
     37 C           4.8909   17.1070    3.5565 C.ar    1  UNL1        0.0000
     38 C           4.3123   18.1894    4.2126 C.ar    1  UNL1        0.0000
     39 H           4.3517   18.2324    5.2914 H       1  UNL1        0.0000
     40 C           3.6820   19.1982    3.5077 C.ar    1  UNL1        0.0000
     41 H           3.2371   20.0294    4.0353 H       1  UNL1        0.0000
     42 C           3.6193   19.1417    2.1253 C.ar    1  UNL1        0.0000
     43 H           3.1262   19.9277    1.5723 H       1  UNL1        0.0000
     44 C           4.1911   18.0734    1.4553 C.ar    1  UNL1        0.0000
     45 H           4.1457   18.0249    0.3768 H       1  UNL1        0.0000
     46 C           4.8232   17.0693    2.1660 C.ar    1  UNL1        0.0000
     47 H           5.2716   16.2402    1.6376 H       1  UNL1        0.0000
     48 C           4.9410   15.4128    6.1990 C.ar    1  UNL1        0.0000
     49 C           5.2118   16.1757    7.3325 C.ar    1  UNL1        0.0000
     50 H           5.9254   16.9837    7.2675 H       1  UNL1        0.0000
     51 C           4.5972   15.8988    8.5393 C.ar    1  UNL1        0.0000
     52 H           4.8259   16.4954    9.4103 H       1  UNL1        0.0000
     53 C           3.6926   14.8544    8.6329 C.ar    1  UNL1        0.0000
     54 H           3.2136   14.6351    9.5758 H       1  UNL1        0.0000
     55 C           3.4060   14.0904    7.5146 C.ar    1  UNL1        0.0000
     56 H           2.6995   13.2763    7.5815 H       1  UNL1        0.0000
     57 C           4.0297   14.3666    6.3113 C.ar    1  UNL1        0.0000
     58 H           3.7976   13.7672    5.4388 H       1  UNL1        0.0000
@<TRIPOS>BOND
     1    21    20    1
     2    20    22   ar
     3    20    18   ar
     4    23    22    1
     5    19    18    1
     6    22    24   ar
     7    18    16   ar
     8    45    44    1
     9    24    25    1
    10    24    15   ar
    11    16    17    1
    12    16    15   ar
    13    44    42   ar
    14    44    46   ar
    15     8     7    1
    16    43    42    1
    17    47    46    1
    18    15     1    1
    19     7     5   ar
    20     7     9   ar
    21    42    40   ar
    22    46    37   ar
    23    10     9    1
    24     6     5    1
    25     5     4   ar
    26     9    11   ar
    27    11    12    1
    28    11    13   ar
    29     4    13   ar
    30     4     1    1
    31    40    41    1
    32    40    38   ar
    33    13    14    1
    34    37    38   ar
    35    37     2    1
    36     3     1    1
    37     3     2    1
    38    28    27    1
    39    38    39    1
    40    30    29    1
    41    27    29   ar
    42    27    26   ar
    43     2    26    1
    44     2    48    1
    45    29    31   ar
    46    26    35   ar
    47    31    32    1
    48    31    33   ar
    49    35    36    1
    50    35    33   ar
    51    33    34    1
    52    58    57    1
    53    48    57   ar
    54    48    49   ar
    55    57    55   ar
    56    50    49    1
    57    49    51   ar
    58    55    56    1
    59    55    53   ar
    60    51    53   ar
    61    51    52    1
    62    53    54    1
