@<TRIPOS>MOLECULE
1
 13 13 0 0 0
SMALL
GASTEIGER

@<TRIPOS>ATOM
      1 P          10.6040   -0.5694   11.9644 P.3     1  UNL1       -0.0629
      2 C           9.5631   -0.9795   10.5564 C.ar    1  UNL1       -0.0221
      3 C           8.3333   -0.3418   10.3842 C.ar    1  UNL1       -0.0541
      4 C           7.5310   -0.6302    9.2992 C.ar    1  UNL1       -0.0612
      5 C           7.9395   -1.5641    8.3590 C.ar    1  UNL1       -0.0617
      6 C           9.1542   -2.2127    8.5223 C.ar    1  UNL1       -0.0612
      7 C           9.9558   -1.9282    9.6092 C.ar    1  UNL1       -0.0541
      8 H           8.0146    0.3734   11.1304 H       1  UNL1        0.0624
      9 H           6.5788   -0.1305    9.1831 H       1  UNL1        0.0618
     10 H           7.3132   -1.7892    7.5080 H       1  UNL1        0.0618
     11 H           9.4748   -2.9452    7.7942 H       1  UNL1        0.0618
     12 H          10.9033   -2.4355    9.7359 H       1  UNL1        0.0624
     13 H          11.4281   -1.6847   11.8148 H       1  UNL1        0.0671
@<TRIPOS>BOND
     1    10     5    1
     2    11     6    1
     3     5     6   ar
     4     5     4   ar
     5     6     7   ar
     6     9     4    1
     7     4     3   ar
     8     7    12    1
     9     7     2   ar
    10     3     2   ar
    11     3     8    1
    12     2     1    1
    13    13     1    1
