@<TRIPOS>MOLECULE
1
 34 36 0 0 0
SMALL
GASTEIGER

@<TRIPOS>ATOM
      1 P          -0.9824    0.8265    9.3014 P.3     1  UNL1       -0.0131
      2 C          -0.5622    0.2893    7.6087 C.ar    1  UNL1       -0.0147
      3 C           0.5701    0.8349    7.0087 C.ar    1  UNL1       -0.0535
      4 C           0.9379    0.4470    5.7340 C.ar    1  UNL1       -0.0611
      5 C           0.1796   -0.4855    5.0456 C.ar    1  UNL1       -0.0617
      6 C          -0.9483   -1.0292    5.6373 C.ar    1  UNL1       -0.0611
      7 C          -1.3208   -0.6472    6.9137 C.ar    1  UNL1       -0.0535
      8 C          -2.6126    0.0440    9.5270 C.ar    1  UNL1       -0.0147
      9 C          -3.7003    0.7447    9.0174 C.ar    1  UNL1       -0.0535
     10 C          -4.9805    0.2436    9.1386 C.ar    1  UNL1       -0.0611
     11 C          -5.1835   -0.9721    9.7732 C.ar    1  UNL1       -0.0617
     12 C          -4.1040   -1.6799   10.2742 C.ar    1  UNL1       -0.0611
     13 C          -2.8189   -1.1792   10.1526 C.ar    1  UNL1       -0.0535
     14 C           0.1041   -0.2016   10.3425 C.ar    1  UNL1       -0.0147
     15 C           1.2000   -0.9077    9.8630 C.ar    1  UNL1       -0.0535
     16 C           2.0104   -1.6013   10.7463 C.ar    1  UNL1       -0.0611
     17 C           1.7354   -1.5931   12.1032 C.ar    1  UNL1       -0.0617
     18 C           0.6446   -0.8857   12.5864 C.ar    1  UNL1       -0.0611
     19 C          -0.1651   -0.1871   11.7127 C.ar    1  UNL1       -0.0535
     20 H           1.1500    1.5763    7.5401 H       1  UNL1        0.0624
     21 H           1.8167    0.8770    5.2766 H       1  UNL1        0.0618
     22 H           0.4652   -0.7877    4.0482 H       1  UNL1        0.0618
     23 H          -1.5423   -1.7573    5.1030 H       1  UNL1        0.0618
     24 H          -2.2018   -1.0776    7.3682 H       1  UNL1        0.0624
     25 H          -3.5198    1.7018    8.5398 H       1  UNL1        0.0624
     26 H          -5.8186    0.8035    8.7489 H       1  UNL1        0.0618
     27 H          -6.1837   -1.3656    9.8813 H       1  UNL1        0.0618
     28 H          -4.2625   -2.6280   10.7679 H       1  UNL1        0.0618
     29 H          -1.9814   -1.7381   10.5461 H       1  UNL1        0.0624
     30 H           1.4173   -0.9137    8.8044 H       1  UNL1        0.0624
     31 H           2.8625   -2.1497   10.3713 H       1  UNL1        0.0618
     32 H           2.3727   -2.1351   12.7867 H       1  UNL1        0.0618
     33 H           0.4295   -0.8778   13.6452 H       1  UNL1        0.0618
     34 H          -1.0211    0.3702   12.0790 H       1  UNL1        0.0624
@<TRIPOS>BOND
     1    22     5    1
     2     5     6   ar
     3     5     4   ar
     4    23     6    1
     5    21     4    1
     6     6     7   ar
     7     4     3   ar
     8     7    24    1
     9     7     2   ar
    10     3    20    1
    11     3     2   ar
    12     2     1    1
    13    25     9    1
    14    26    10    1
    15    30    15    1
    16     9    10   ar
    17     9     8   ar
    18    10    11   ar
    19     1     8    1
    20     1    14    1
    21     8    13   ar
    22    11    27    1
    23    11    12   ar
    24    15    14   ar
    25    15    16   ar
    26    13    12   ar
    27    13    29    1
    28    12    28    1
    29    14    19   ar
    30    31    16    1
    31    16    17   ar
    32    19    34    1
    33    19    18   ar
    34    17    18   ar
    35    17    32    1
    36    18    33    1
