@<TRIPOS>MOLECULE
1
 34 36 0 0 0
SMALL
GASTEIGER

@<TRIPOS>ATOM
      1 P          13.9498    2.1595    7.6560 P.3     1  UNL1       -0.0131
      2 C          14.8786    0.9693    6.6108 C.ar    1  UNL1       -0.0147
      3 C          16.1288    0.5748    7.0825 C.ar    1  UNL1       -0.0535
      4 C          16.9288   -0.2771    6.3467 C.ar    1  UNL1       -0.0611
      5 C          16.4891   -0.7378    5.1165 C.ar    1  UNL1       -0.0617
      6 C          15.2514   -0.3443    4.6348 C.ar    1  UNL1       -0.0611
      7 C          14.4465    0.5062    5.3731 C.ar    1  UNL1       -0.0535
      8 C          12.3924    2.3145    6.7163 C.ar    1  UNL1       -0.0147
      9 C          11.4813    1.2672    6.6346 C.ar    1  UNL1       -0.0535
     10 C          10.3246    1.4193    5.8910 C.ar    1  UNL1       -0.0611
     11 C          10.0750    2.6081    5.2233 C.ar    1  UNL1       -0.0617
     12 C          10.9829    3.6526    5.3016 C.ar    1  UNL1       -0.0611
     13 C          12.1358    3.5052    6.0499 C.ar    1  UNL1       -0.0535
     14 C          13.3926    1.0528    9.0140 C.ar    1  UNL1       -0.0147
     15 C          12.3774    1.5474    9.8325 C.ar    1  UNL1       -0.0535
     16 C          11.9734    0.8481   10.9520 C.ar    1  UNL1       -0.0611
     17 C          12.5823   -0.3550   11.2753 C.ar    1  UNL1       -0.0617
     18 C          13.5827   -0.8579   10.4622 C.ar    1  UNL1       -0.0611
     19 C          13.9882   -0.1613    9.3358 C.ar    1  UNL1       -0.0535
     20 H          16.4703    0.9505    8.0405 H       1  UNL1        0.0624
     21 H          17.8976   -0.5742    6.7241 H       1  UNL1        0.0618
     22 H          17.1136   -1.3977    4.5321 H       1  UNL1        0.0618
     23 H          14.9110   -0.7006    3.6729 H       1  UNL1        0.0618
     24 H          13.4867    0.8165    4.9861 H       1  UNL1        0.0624
     25 H          11.6801    0.3379    7.1509 H       1  UNL1        0.0624
     26 H           9.6149    0.6068    5.8292 H       1  UNL1        0.0618
     27 H           9.1706    2.7188    4.6429 H       1  UNL1        0.0618
     28 H          10.7920    4.5797    4.7812 H       1  UNL1        0.0618
     29 H          12.8665    4.3002    6.1466 H       1  UNL1        0.0624
     30 H          11.9208    2.4931    9.5795 H       1  UNL1        0.0624
     31 H          11.1881    1.2460   11.5786 H       1  UNL1        0.0618
     32 H          12.2768   -0.8988   12.1574 H       1  UNL1        0.0618
     33 H          14.0557   -1.7988   10.7055 H       1  UNL1        0.0618
     34 H          14.7655   -0.5738    8.7088 H       1  UNL1        0.0624
@<TRIPOS>BOND
     1    23     6    1
     2    22     5    1
     3     6     5   ar
     4     6     7   ar
     5    27    11    1
     6    28    12    1
     7    24     7    1
     8     5     4   ar
     9    11    12   ar
    10    11    10   ar
    11    12    13   ar
    12     7     2   ar
    13    26    10    1
    14    10     9   ar
    15    13    29    1
    16    13     8   ar
    17     4    21    1
    18     4     3   ar
    19     2     3   ar
    20     2     1    1
    21     9     8   ar
    22     9    25    1
    23     8     1    1
    24     3    20    1
    25     1    14    1
    26    34    19    1
    27    14    19   ar
    28    14    15   ar
    29    19    18   ar
    30    30    15    1
    31    15    16   ar
    32    18    33    1
    33    18    17   ar
    34    16    17   ar
    35    16    31    1
    36    17    32    1
