@<TRIPOS>MOLECULE
1
 34 36 0 0 0
SMALL
GASTEIGER

@<TRIPOS>ATOM
      1 P          14.1137    4.9617   10.0540 P.3     1  UNL1       -0.0131
      2 C          14.6282    6.6886   10.3398 C.ar    1  UNL1       -0.0147
      3 C          13.7716    7.7789   10.2562 C.ar    1  UNL1       -0.0535
      4 C          14.2712    9.0606   10.4046 C.ar    1  UNL1       -0.0611
      5 C          15.6233    9.2648   10.6222 C.ar    1  UNL1       -0.0617
      6 C          16.4817    8.1806   10.7112 C.ar    1  UNL1       -0.0611
      7 C          15.9853    6.8994   10.5734 C.ar    1  UNL1       -0.0535
      8 C          12.3045    5.0742   10.2817 C.ar    1  UNL1       -0.0147
      9 C          11.7232    5.4147   11.4974 C.ar    1  UNL1       -0.0535
     10 C          10.3458    5.4971   11.6012 C.ar    1  UNL1       -0.0611
     11 C           9.5433    5.2430   10.5000 C.ar    1  UNL1       -0.0617
     12 C          10.1197    4.8959    9.2886 C.ar    1  UNL1       -0.0611
     13 C          11.4959    4.8093    9.1841 C.ar    1  UNL1       -0.0535
     14 C          14.6441    4.2056   11.6354 C.ar    1  UNL1       -0.0147
     15 C          14.7950    4.9289   12.8151 C.ar    1  UNL1       -0.0535
     16 C          15.2014    4.2873   13.9713 C.ar    1  UNL1       -0.0611
     17 C          15.4629    2.9264   13.9639 C.ar    1  UNL1       -0.0617
     18 C          15.3226    2.2031   12.7917 C.ar    1  UNL1       -0.0611
     19 C          14.9213    2.8434   11.6354 C.ar    1  UNL1       -0.0535
     20 H          12.7173    7.6210   10.0839 H       1  UNL1        0.0624
     21 H          13.6009    9.9059   10.3463 H       1  UNL1        0.0618
     22 H          16.0088   10.2685   10.7276 H       1  UNL1        0.0618
     23 H          17.5372    8.3321   10.8861 H       1  UNL1        0.0618
     24 H          16.6444    6.0433   10.6694 H       1  UNL1        0.0624
     25 H          12.3422    5.6112   12.3604 H       1  UNL1        0.0624
     26 H           9.8947    5.7598   12.5473 H       1  UNL1        0.0618
     27 H           8.4689    5.3094   10.5906 H       1  UNL1        0.0618
     28 H           9.5001    4.6846    8.4290 H       1  UNL1        0.0618
     29 H          11.9848    4.5126    8.2652 H       1  UNL1        0.0624
     30 H          14.6166    5.9961   12.8250 H       1  UNL1        0.0624
     31 H          15.3191    4.8536   14.8849 H       1  UNL1        0.0618
     32 H          15.7853    2.4333   14.8696 H       1  UNL1        0.0618
     33 H          15.5366    1.1448   12.7720 H       1  UNL1        0.0618
     34 H          14.8314    2.2834   10.7123 H       1  UNL1        0.0624
@<TRIPOS>BOND
     1    29    13    1
     2    28    12    1
     3    13    12   ar
     4    13     8   ar
     5    12    11   ar
     6     1     8    1
     7     1     2    1
     8     1    14    1
     9    20     3    1
    10     3     2   ar
    11     3     4   ar
    12     8     9   ar
    13     2     7   ar
    14    21     4    1
    15     4     5   ar
    16    11    27    1
    17    11    10   ar
    18     7    24    1
    19     7     6   ar
    20     5     6   ar
    21     5    22    1
    22     6    23    1
    23    34    19    1
    24     9    10   ar
    25     9    25    1
    26    10    26    1
    27    19    14   ar
    28    19    18   ar
    29    14    15   ar
    30    33    18    1
    31    18    17   ar
    32    15    30    1
    33    15    16   ar
    34    17    16   ar
    35    17    32    1
    36    16    31    1
