@<TRIPOS>MOLECULE
1
 34 36 0 0 0
SMALL
GASTEIGER

@<TRIPOS>ATOM
      1 P          15.4468    5.5106    6.7374 P.3     1  UNL1       -0.0131
      2 C          17.2257    5.8990    6.5334 C.ar    1  UNL1       -0.0147
      3 C          17.9024    6.3161    7.6777 C.ar    1  UNL1       -0.0535
      4 C          19.2697    6.5035    7.6587 C.ar    1  UNL1       -0.0611
      5 C          19.9802    6.2712    6.4912 C.ar    1  UNL1       -0.0617
      6 C          19.3134    5.8709    5.3463 C.ar    1  UNL1       -0.0611
      7 C          17.9420    5.6791    5.3630 C.ar    1  UNL1       -0.0535
      8 C          14.7330    7.1800    6.9707 C.ar    1  UNL1       -0.0147
      9 C          13.3610    7.2371    7.1938 C.ar    1  UNL1       -0.0535
     10 C          12.7183    8.4546    7.3016 C.ar    1  UNL1       -0.0611
     11 C          13.4469    9.6304    7.2123 C.ar    1  UNL1       -0.0617
     12 C          14.8161    9.5794    7.0159 C.ar    1  UNL1       -0.0611
     13 C          15.4602    8.3607    6.8848 C.ar    1  UNL1       -0.0535
     14 C          14.9890    5.2040    4.9924 C.ar    1  UNL1       -0.0147
     15 C          14.9491    3.8836    4.5616 C.ar    1  UNL1       -0.0535
     16 C          14.6673    3.5806    3.2441 C.ar    1  UNL1       -0.0611
     17 C          14.4157    4.6041    2.3441 C.ar    1  UNL1       -0.0617
     18 C          14.4504    5.9230    2.7678 C.ar    1  UNL1       -0.0611
     19 C          14.7400    6.2284    4.0864 C.ar    1  UNL1       -0.0535
     20 H          17.3361    6.4862    8.5849 H       1  UNL1        0.0624
     21 H          19.7814    6.8159    8.5577 H       1  UNL1        0.0618
     22 H          21.0529    6.3989    6.4759 H       1  UNL1        0.0618
     23 H          19.8662    5.6913    4.4353 H       1  UNL1        0.0618
     24 H          17.4329    5.3491    4.4684 H       1  UNL1        0.0624
     25 H          12.8217    6.3059    7.2933 H       1  UNL1        0.0624
     26 H          11.6500    8.4896    7.4611 H       1  UNL1        0.0618
     27 H          12.9495   10.5856    7.2989 H       1  UNL1        0.0618
     28 H          15.3876   10.4946    6.9543 H       1  UNL1        0.0618
     29 H          16.5265    8.3337    6.7104 H       1  UNL1        0.0624
     30 H          15.1240    3.1025    5.2920 H       1  UNL1        0.0624
     31 H          14.6434    2.5504    2.9200 H       1  UNL1        0.0618
     32 H          14.1905    4.3752    1.3127 H       1  UNL1        0.0618
     33 H          14.2524    6.7195    2.0650 H       1  UNL1        0.0618
     34 H          14.7723    7.2580    4.4126 H       1  UNL1        0.0624
@<TRIPOS>BOND
     1    32    17    1
     2    33    18    1
     3    17    18   ar
     4    17    16   ar
     5    18    19   ar
     6    31    16    1
     7    16    15   ar
     8    19    34    1
     9    19    14   ar
    10    23     6    1
    11    24     7    1
    12    15    14   ar
    13    15    30    1
    14    14     1    1
    15     6     7   ar
    16     6     5   ar
    17     7     2   ar
    18    22     5    1
    19     5     4   ar
    20     2     1    1
    21     2     3   ar
    22    29    13    1
    23     1     8    1
    24    13     8   ar
    25    13    12   ar
    26    28    12    1
    27     8     9   ar
    28    12    11   ar
    29     9    25    1
    30     9    10   ar
    31    11    27    1
    32    11    10   ar
    33    10    26    1
    34     4     3   ar
    35     4    21    1
    36     3    20    1
