@<TRIPOS>MOLECULE
1
 13 12 0 0 0
SMALL
GASTEIGER

@<TRIPOS>ATOM
      1 P          -0.0406    1.0693    3.6894 P.3     1  UNL1       -0.1154
      2 C          -0.5232   -0.6667    4.0424 C.3     1  UNL1       -0.0447
      3 H          -1.2489   -1.0035    3.3021 H       1  UNL1        0.0277
      4 H          -0.9682   -0.7227    5.0335 H       1  UNL1        0.0277
      5 H           0.3493   -1.3145    4.0072 H       1  UNL1        0.0277
      6 C          -1.6910    1.8237    3.4626 C.3     1  UNL1       -0.0447
      7 H          -2.2779    1.2423    2.7510 H       1  UNL1        0.0277
      8 H          -1.5779    2.8433    3.0964 H       1  UNL1        0.0277
      9 H          -2.2076    1.8572    4.4214 H       1  UNL1        0.0277
     10 C           0.4926    0.9001    1.9413 C.3     1  UNL1       -0.0447
     11 H          -0.3049    0.4452    1.3538 H       1  UNL1        0.0277
     12 H           1.3813    0.2762    1.8813 H       1  UNL1        0.0277
     13 H           0.7209    1.8845    1.5381 H       1  UNL1        0.0277
@<TRIPOS>BOND
     1    11    10    1
     2    13    10    1
     3    12    10    1
     4    10     1    1
     5     7     6    1
     6     8     6    1
     7     3     2    1
     8     6     1    1
     9     6     9    1
    10     1     2    1
    11     5     2    1
    12     2     4    1
