@<TRIPOS>MOLECULE
1
 73 73 0 0 0
SMALL
GASTEIGER

@<TRIPOS>ATOM
      1 P          11.5145    7.6268    3.0088 P.3     1  UNL1        0.0000
      2 P          13.1919    7.6311    4.3514 P.3     1  UNL1        0.0000
      3 P          13.6021    5.8520    3.0862 P.3     1  UNL1        0.0000
      4 SI         14.9227   10.0898    5.2270 Si      1  UNL1        0.0000
      5 SI         14.9547    9.1161    2.0714 Si      1  UNL1        0.0000
      6 SI         15.6790    4.3559    4.6308 Si      1  UNL1        0.0000
      7 SI         12.6539    4.4861    5.9009 Si      1  UNL1        0.0000
      8 C          11.8265    5.9840    2.6864 C.3     1  UNL1        0.0000
      9 C          11.0394    5.1081    1.7511 C.3     1  UNL1        0.0000
     10 C           9.5410    5.3195    1.9786 C.3     1  UNL1        0.0000
     11 C          11.3976    3.6358    1.9578 C.3     1  UNL1        0.0000
     12 C          11.3831    5.5050    0.3085 C.3     1  UNL1        0.0000
     13 C          14.0363    9.1927    3.7613 C.3     1  UNL1        0.0000
     14 C          13.7788    4.4820    4.3339 C.3     1  UNL1        0.0000
     15 C          14.4215   11.9272    5.1198 C.3     1  UNL1        0.0000
     16 C          14.3159    9.3920    6.8934 C.3     1  UNL1        0.0000
     17 C          16.8221    9.9302    5.1864 C.3     1  UNL1        0.0000
     18 C          16.4650    7.9561    2.1208 C.3     1  UNL1        0.0000
     19 C          13.7791    8.5343    0.6846 C.3     1  UNL1        0.0000
     20 C          15.4956   10.8891    1.6301 C.3     1  UNL1        0.0000
     21 C          16.4784    3.9463    2.9424 C.3     1  UNL1        0.0000
     22 C          16.1331    2.9449    5.8288 C.3     1  UNL1        0.0000
     23 C          16.3547    6.0120    5.2938 C.3     1  UNL1        0.0000
     24 C          10.9057    5.2239    5.7003 C.3     1  UNL1        0.0000
     25 C          13.4816    5.4054    7.3485 C.3     1  UNL1        0.0000
     26 C          12.4173    2.6454    6.3540 C.3     1  UNL1        0.0000
     27 H           8.9628    4.7022    1.2940 H       1  UNL1        0.0000
     28 H           9.2761    6.3636    1.8071 H       1  UNL1        0.0000
     29 H           9.2615    5.0583    2.9972 H       1  UNL1        0.0000
     30 H          10.8224    3.0103    1.2778 H       1  UNL1        0.0000
     31 H          11.1831    3.3266    2.9784 H       1  UNL1        0.0000
     32 H          12.4562    3.4780    1.7555 H       1  UNL1        0.0000
     33 H          12.4473    5.3681    0.1215 H       1  UNL1        0.0000
     34 H          11.1305    6.5500    0.1344 H       1  UNL1        0.0000
     35 H          10.8264    4.8897   -0.3955 H       1  UNL1        0.0000
     36 H          13.1665    9.8379    3.5648 H       1  UNL1        0.0000
     37 H          13.5226    3.5810    3.7701 H       1  UNL1        0.0000
     38 H          13.3519   12.0470    5.2661 H       1  UNL1        0.0000
     39 H          14.6690   12.3579    4.1555 H       1  UNL1        0.0000
     40 H          14.9225   12.5163    5.8814 H       1  UNL1        0.0000
     41 H          13.2340    9.3030    6.9153 H       1  UNL1        0.0000
     42 H          14.6076   10.0404    7.7139 H       1  UNL1        0.0000
     43 H          14.7354    8.4099    7.0892 H       1  UNL1        0.0000
     44 H          17.2473   10.3520    4.2827 H       1  UNL1        0.0000
     45 H          17.1454    8.8978    5.2583 H       1  UNL1        0.0000
     46 H          17.2503   10.4645    6.0285 H       1  UNL1        0.0000
     47 H          17.2382    8.3292    2.7820 H       1  UNL1        0.0000
     48 H          16.8979    7.8651    1.1294 H       1  UNL1        0.0000
     49 H          16.1950    6.9596    2.4557 H       1  UNL1        0.0000
     50 H          12.7972    8.9964    0.7706 H       1  UNL1        0.0000
     51 H          13.6412    7.4573    0.7097 H       1  UNL1        0.0000
     52 H          14.1732    8.7905   -0.2945 H       1  UNL1        0.0000
     53 H          16.1750   11.3030    2.3663 H       1  UNL1        0.0000
     54 H          14.6427   11.5554    1.5541 H       1  UNL1        0.0000
     55 H          16.0046   10.9010    0.6720 H       1  UNL1        0.0000
     56 H          16.0665    4.5587    2.1450 H       1  UNL1        0.0000
     57 H          16.3105    2.9075    2.6739 H       1  UNL1        0.0000
     58 H          17.5516    4.1069    2.9604 H       1  UNL1        0.0000
     59 H          15.7270    3.1024    6.8214 H       1  UNL1        0.0000
     60 H          17.2112    2.8690    5.9238 H       1  UNL1        0.0000
     61 H          15.7705    1.9869    5.4710 H       1  UNL1        0.0000
     62 H          16.3831    6.0259    6.3781 H       1  UNL1        0.0000
     63 H          15.7314    6.8423    4.9698 H       1  UNL1        0.0000
     64 H          17.3639    6.1958    4.9387 H       1  UNL1        0.0000
     65 H          10.3500    4.7487    4.8994 H       1  UNL1        0.0000
     66 H          10.9339    6.2920    5.4961 H       1  UNL1        0.0000
     67 H          10.3386    5.0819    6.6160 H       1  UNL1        0.0000
     68 H          13.6607    6.4459    7.1001 H       1  UNL1        0.0000
     69 H          14.4297    4.9589    7.6261 H       1  UNL1        0.0000
     70 H          12.8400    5.3834    8.2240 H       1  UNL1        0.0000
     71 H          11.8822    2.1031    5.5804 H       1  UNL1        0.0000
     72 H          11.8464    2.5489    7.2714 H       1  UNL1        0.0000
     73 H          13.3671    2.1460    6.5054 H       1  UNL1        0.0000
@<TRIPOS>BOND
     1    35    12    1
     2    52    19    1
     3    33    12    1
     4    34    12    1
     5    12     9    1
     6    55    20    1
     7    19    51    1
     8    19    50    1
     9    19     5    1
    10    48    18    1
    11    30    11    1
    12    27    10    1
    13    54    20    1
    14    20     5    1
    15    20    53    1
    16     9    11    1
    17     9    10    1
    18     9     8    1
    19    32    11    1
    20    28    10    1
    21    11    31    1
    22    10    29    1
    23     5    18    1
    24     5    13    1
    25    18    49    1
    26    18    47    1
    27    56    21    1
    28    57    21    1
    29     8     1    1
    30     8     3    1
    31    21    58    1
    32    21     6    1
    33     1     2    1
    34     3    14    1
    35     3     2    1
    36    36    13    1
    37    13     2    1
    38    13     4    1
    39    37    14    1
    40    39    15    1
    41    44    17    1
    42    14     6    1
    43    14     7    1
    44     6    23    1
    45     6    22    1
    46    65    24    1
    47    64    23    1
    48    63    23    1
    49    15     4    1
    50    15    38    1
    51    15    40    1
    52    17     4    1
    53    17    45    1
    54    17    46    1
    55     4    16    1
    56    23    62    1
    57    61    22    1
    58    66    24    1
    59    71    26    1
    60    24     7    1
    61    24    67    1
    62    22    60    1
    63    22    59    1
    64     7    26    1
    65     7    25    1
    66    26    73    1
    67    26    72    1
    68    16    41    1
    69    16    43    1
    70    16    42    1
    71    68    25    1
    72    25    69    1
    73    25    70    1
