@<TRIPOS>MOLECULE
2
 72 72 0 0 0
SMALL
GASTEIGER

@<TRIPOS>ATOM
      1 P           3.8591    4.6483   -1.0786 P.3     1  UNL1        0.0000
      2 P           3.0020    4.6993    0.9290 P.3     1  UNL1        0.0000
      3 SI          3.1319    1.6214   -2.3434 Si      1  UNL1        0.0000
      4 C           3.0907    2.9879   -1.0429 C.2     1  UNL1        0.0000
      5 C           3.8037    2.2884   -4.0121 C.3     1  UNL1        0.0000
      6 C           4.2669    0.1649   -1.8239 C.3     1  UNL1        0.0000
      7 C           1.3855    0.9859   -2.8111 C.3     1  UNL1        0.0000
      8 C           2.5307    3.1117    0.2093 C.2     1  UNL1        0.0000
      9 C           1.7191    2.1346    1.0165 C.3     1  UNL1        0.0000
     10 C           2.1295    0.6797    0.7858 C.3     1  UNL1        0.0000
     11 C           1.9041    2.4270    2.5098 C.3     1  UNL1        0.0000
     12 N           3.3232    5.5641   -2.3878 N.3     1  UNL1        0.0000
     13 N           5.5237    4.7813   -1.1478 N.3     1  UNL1        0.0000
     14 C           0.8108    5.3908   -2.1895 C.3     1  UNL1        0.0000
     15 C           2.0725    5.1139   -3.0063 C.3     1  UNL1        0.0000
     16 C           3.7404    6.9717   -2.3399 C.3     1  UNL1        0.0000
     17 C           6.2064    4.5935   -2.4274 C.3     1  UNL1        0.0000
     18 C           0.2484    2.3424    0.6318 C.3     1  UNL1        0.0000
     19 C           6.3626    4.6940    0.0530 C.3     1  UNL1        0.0000
     20 C           1.9081    5.6045   -4.4411 C.3     1  UNL1        0.0000
     21 C           2.6729    7.9490   -1.8611 C.3     1  UNL1        0.0000
     22 C           6.1608    3.4011    0.8388 C.3     1  UNL1        0.0000
     23 C           4.3362    7.4585   -3.6649 C.3     1  UNL1        0.0000
     24 C           6.1783    5.9245    0.9361 C.3     1  UNL1        0.0000
     25 C           6.8330    3.2065   -2.5637 C.3     1  UNL1        0.0000
     26 C           7.2511    5.6840   -2.6790 C.3     1  UNL1        0.0000
     27 H           3.0124    2.3398   -4.7544 H       1  UNL1        0.0000
     28 H           4.5760    1.6397   -4.4137 H       1  UNL1        0.0000
     29 H           4.2275    3.2815   -3.9261 H       1  UNL1        0.0000
     30 H           3.6893   -0.6904   -1.4895 H       1  UNL1        0.0000
     31 H           4.9373    0.4372   -1.0139 H       1  UNL1        0.0000
     32 H           4.8788   -0.1684   -2.6572 H       1  UNL1        0.0000
     33 H           0.7002    1.8079   -3.0004 H       1  UNL1        0.0000
     34 H           0.9327    0.3531   -2.0559 H       1  UNL1        0.0000
     35 H           1.4469    0.3982   -3.7228 H       1  UNL1        0.0000
     36 H           1.8980    0.3559   -0.2198 H       1  UNL1        0.0000
     37 H           1.5948    0.0373    1.4827 H       1  UNL1        0.0000
     38 H           3.1960    0.5582    0.9553 H       1  UNL1        0.0000
     39 H           2.9443    2.2809    2.7974 H       1  UNL1        0.0000
     40 H           1.2851    1.7576    3.1040 H       1  UNL1        0.0000
     41 H           1.6204    3.4515    2.7508 H       1  UNL1        0.0000
     42 H           0.9977    5.1784   -1.1366 H       1  UNL1        0.0000
     43 H           0.0108    4.7378   -2.5316 H       1  UNL1        0.0000
     44 H           0.4722    6.4168   -2.2888 H       1  UNL1        0.0000
     45 H           2.1790    4.0260   -3.0457 H       1  UNL1        0.0000
     46 H           4.5437    6.9797   -1.5892 H       1  UNL1        0.0000
     47 H           5.4246    4.6948   -3.1855 H       1  UNL1        0.0000
     48 H           0.0966    2.1185   -0.4209 H       1  UNL1        0.0000
     49 H          -0.0430    3.3766    0.8101 H       1  UNL1        0.0000
     50 H          -0.3921    1.6950    1.2266 H       1  UNL1        0.0000
     51 H           7.3959    4.7044   -0.3059 H       1  UNL1        0.0000
     52 H           2.8126    5.4312   -5.0171 H       1  UNL1        0.0000
     53 H           1.6554    6.6599   -4.4779 H       1  UNL1        0.0000
     54 H           1.0951    5.0510   -4.9054 H       1  UNL1        0.0000
     55 H           2.2190    7.5929   -0.9379 H       1  UNL1        0.0000
     56 H           1.8986    8.0962   -2.6089 H       1  UNL1        0.0000
     57 H           3.1374    8.9127   -1.6635 H       1  UNL1        0.0000
     58 H           6.2535    2.5383    0.1842 H       1  UNL1        0.0000
     59 H           5.1747    3.3890    1.2971 H       1  UNL1        0.0000
     60 H           6.9103    3.3273    1.6232 H       1  UNL1        0.0000
     61 H           4.9438    6.6891   -4.1309 H       1  UNL1        0.0000
     62 H           4.9654    8.3251   -3.4745 H       1  UNL1        0.0000
     63 H           3.5617    7.7591   -4.3631 H       1  UNL1        0.0000
     64 H           6.3648    6.8322    0.3665 H       1  UNL1        0.0000
     65 H           6.8754    5.8888    1.7696 H       1  UNL1        0.0000
     66 H           5.1676    5.9675    1.3393 H       1  UNL1        0.0000
     67 H           6.0942    2.4390   -2.3507 H       1  UNL1        0.0000
     68 H           7.6736    3.0862   -1.8845 H       1  UNL1        0.0000
     69 H           7.1950    3.0689   -3.5797 H       1  UNL1        0.0000
     70 H           6.8495    6.6635   -2.4371 H       1  UNL1        0.0000
     71 H           7.5373    5.6753   -3.7279 H       1  UNL1        0.0000
     72 H           8.1497    5.5239   -2.0885 H       1  UNL1        0.0000
@<TRIPOS>BOND
     1    52    20    1
     2    54    20    1
     3    27     5    1
     4    53    20    1
     5    20    15    1
     6    28     5    1
     7    63    23    1
     8    61    23    1
     9     5    29    1
    10     5     3    1
    11    71    26    1
    12    35     7    1
    13    23    62    1
    14    23    16    1
    15    69    25    1
    16    47    17    1
    17    45    15    1
    18    15    12    1
    19    15    14    1
    20    33     7    1
    21     7     3    1
    22     7    34    1
    23    26    70    1
    24    26    17    1
    25    26    72    1
    26    32     6    1
    27    56    21    1
    28    25    17    1
    29    25    67    1
    30    25    68    1
    31    43    14    1
    32    17    13    1
    33    12    16    1
    34    12     1    1
    35     3     6    1
    36     3     4    1
    37    16    21    1
    38    16    46    1
    39    44    14    1
    40    14    42    1
    41    21    57    1
    42    21    55    1
    43     6    30    1
    44     6    31    1
    45    13     1    1
    46    13    19    1
    47     1     4    1
    48     1     2    1
    49     4     8    2
    50    48    18    1
    51    51    19    1
    52    36    10    1
    53    19    22    1
    54    19    24    1
    55    58    22    1
    56     8     2    1
    57     8     9    1
    58    64    24    1
    59    18    49    1
    60    18     9    1
    61    18    50    1
    62    10    38    1
    63    10     9    1
    64    10    37    1
    65    22    59    1
    66    22    60    1
    67    24    66    1
    68    24    65    1
    69     9    11    1
    70    11    41    1
    71    11    39    1
    72    11    40    1
