@<TRIPOS>MOLECULE
1
 34 36 0 0 0
SMALL
GASTEIGER

@<TRIPOS>ATOM
      1 P           0.5567    4.7155   12.3583 P.3     1  UNL1       -0.0131
      2 C           0.7486    5.7101   10.8368 C.ar    1  UNL1       -0.0147
      3 C          -0.4260    5.8638   13.3866 C.ar    1  UNL1       -0.0147
      4 C           1.2220    7.2729    8.5880 C.ar    1  UNL1       -0.0617
      5 C          -0.3987    5.6836   14.7666 C.ar    1  UNL1       -0.0535
      6 C          -0.6831    3.4811   11.8441 C.ar    1  UNL1       -0.0147
      7 C           0.4665    6.1172    8.4856 C.ar    1  UNL1       -0.0611
      8 C           1.5084    6.8730   10.9319 C.ar    1  UNL1       -0.0535
      9 C           0.2315    5.3347    9.6035 C.ar    1  UNL1       -0.0535
     10 C           1.7417    7.6521    9.8163 C.ar    1  UNL1       -0.0611
     11 C          -0.2098    2.2762   11.3336 C.ar    1  UNL1       -0.0535
     12 C          -1.8642    7.5587   15.0544 C.ar    1  UNL1       -0.0617
     13 C          -1.1156    6.5268   15.5961 C.ar    1  UNL1       -0.0611
     14 C          -2.4580    1.5213   11.0007 C.ar    1  UNL1       -0.0617
     15 C          -1.1844    6.8993   12.8472 C.ar    1  UNL1       -0.0535
     16 C          -1.0927    1.3015   10.9111 C.ar    1  UNL1       -0.0611
     17 C          -2.0524    3.6956   11.9365 C.ar    1  UNL1       -0.0535
     18 C          -1.8986    7.7410   13.6811 C.ar    1  UNL1       -0.0611
     19 C          -2.9341    2.7154   11.5148 C.ar    1  UNL1       -0.0611
     20 H          -0.7187    0.3665   10.5203 H       1  UNL1        0.0618
     21 H          -3.1507    0.7579   10.6782 H       1  UNL1        0.0618
     22 H          -3.9985    2.8838   11.5938 H       1  UNL1        0.0618
     23 H          -2.4305    4.6218   12.3451 H       1  UNL1        0.0624
     24 H           0.8585    2.1048   11.2917 H       1  UNL1        0.0624
     25 H           0.0590    5.8212    7.5297 H       1  UNL1        0.0618
     26 H          -0.3555    4.4313    9.5170 H       1  UNL1        0.0624
     27 H           1.9071    7.1620   11.8948 H       1  UNL1        0.0624
     28 H           2.3304    8.5543    9.8994 H       1  UNL1        0.0618
     29 H           1.4063    7.8781    7.7125 H       1  UNL1        0.0618
     30 H          -1.2131    7.0478   11.7764 H       1  UNL1        0.0624
     31 H          -2.4848    8.5434   13.2566 H       1  UNL1        0.0618
     32 H          -2.4217    8.2215   15.7000 H       1  UNL1        0.0618
     33 H          -1.0861    6.3802   16.6659 H       1  UNL1        0.0618
     34 H           0.1868    4.8721   15.1843 H       1  UNL1        0.0624
@<TRIPOS>BOND
     1    25     7    1
     2    29     4    1
     3     7     4   ar
     4     7     9   ar
     5     4    10   ar
     6    26     9    1
     7     9     2   ar
     8    10    28    1
     9    10     8   ar
    10    20    16    1
    11    21    14    1
    12     2     8   ar
    13     2     1    1
    14    16    14   ar
    15    16    11   ar
    16     8    27    1
    17    14    19   ar
    18    24    11    1
    19    11     6   ar
    20    19    22    1
    21    19    17   ar
    22    30    15    1
    23     6    17   ar
    24     6     1    1
    25    17    23    1
    26     1     3    1
    27    15     3   ar
    28    15    18   ar
    29    31    18    1
    30     3     5   ar
    31    18    12   ar
    32     5    34    1
    33     5    13   ar
    34    12    13   ar
    35    12    32    1
    36    13    33    1
