@<TRIPOS>MOLECULE
1
 34 36 0 0 0
SMALL
GASTEIGER

@<TRIPOS>ATOM
      1 P          16.2917    1.1021    5.7413 P.3     1  UNL1       -0.0131
      2 C          18.1831    3.9948    8.7815 C.ar    1  UNL1       -0.0617
      3 C          17.0642    2.2385    6.9417 C.ar    1  UNL1       -0.0147
      4 C          18.0826    2.2346    3.9680 C.ar    1  UNL1       -0.0535
      5 C          17.6172    1.0290    4.4881 C.ar    1  UNL1       -0.0147
      6 C          18.0985   -0.1680    3.9721 C.ar    1  UNL1       -0.0535
      7 C          16.2541    3.0909    7.6817 C.ar    1  UNL1       -0.0535
      8 C          16.4194   -0.5322    6.5396 C.ar    1  UNL1       -0.0147
      9 C          18.4448    2.2749    7.1272 C.ar    1  UNL1       -0.0535
     10 C          19.0381    2.2411    2.9697 C.ar    1  UNL1       -0.0611
     11 C          19.0524   -0.1580    2.9686 C.ar    1  UNL1       -0.0611
     12 C          18.9973    3.1481    8.0457 C.ar    1  UNL1       -0.0611
     13 C          17.3145   -0.8504    7.5519 C.ar    1  UNL1       -0.0535
     14 C          16.8113    3.9653    8.5979 C.ar    1  UNL1       -0.0611
     15 C          15.5298   -1.4994    6.0784 C.ar    1  UNL1       -0.0535
     16 C          16.4443   -3.0893    7.6154 C.ar    1  UNL1       -0.0617
     17 C          15.5428   -2.7736    6.6111 C.ar    1  UNL1       -0.0611
     18 C          19.5264    1.0433    2.4693 C.ar    1  UNL1       -0.0617
     19 C          17.3236   -2.1280    8.0849 C.ar    1  UNL1       -0.0611
     20 H          14.8127   -1.2268    5.3056 H       1  UNL1        0.0624
     21 H          16.4539   -4.0826    8.0399 H       1  UNL1        0.0618
     22 H          18.0176   -2.3726    8.8761 H       1  UNL1        0.0618
     23 H          17.9928   -0.1013    7.9340 H       1  UNL1        0.0624
     24 H          17.7306   -1.1076    4.3617 H       1  UNL1        0.0624
     25 H          19.4273   -1.0923    2.5759 H       1  UNL1        0.0618
     26 H          20.2709    1.0483    1.6871 H       1  UNL1        0.0618
     27 H          19.3976    3.1799    2.5739 H       1  UNL1        0.0618
     28 H          17.6893    3.1655    4.3545 H       1  UNL1        0.0624
     29 H          19.0871    1.6280    6.5447 H       1  UNL1        0.0624
     30 H          20.0684    3.1699    8.1874 H       1  UNL1        0.0618
     31 H          18.6208    4.6769    9.4958 H       1  UNL1        0.0618
     32 H          16.1742    4.6235    9.1702 H       1  UNL1        0.0618
     33 H          15.1824    3.0469    7.5456 H       1  UNL1        0.0624
     34 H          14.8473   -3.5190    6.2535 H       1  UNL1        0.0618
@<TRIPOS>BOND
     1    26    18    1
     2    18    11   ar
     3    18    10   ar
     4    27    10    1
     5    25    11    1
     6    11     6   ar
     7    10     4   ar
     8     4    28    1
     9     4     5   ar
    10     6    24    1
    11     6     5   ar
    12     5     1    1
    13    20    15    1
    14     1     8    1
    15     1     3    1
    16    15     8   ar
    17    15    17   ar
    18    34    17    1
    19     8    13   ar
    20    29     9    1
    21    17    16   ar
    22     3     9   ar
    23     3     7   ar
    24     9    12   ar
    25    33     7    1
    26    13    23    1
    27    13    19   ar
    28    16    21    1
    29    16    19   ar
    30     7    14   ar
    31    12    30    1
    32    12     2   ar
    33    19    22    1
    34    14     2   ar
    35    14    32    1
    36     2    31    1
