@<TRIPOS>MOLECULE
1
 34 36 0 0 0
SMALL
GASTEIGER

@<TRIPOS>ATOM
      1 P          11.9790    1.9211    4.6643 P.3     1  UNL1       -0.0131
      2 C          10.8614    0.6759    5.3819 C.ar    1  UNL1       -0.0147
      3 C          11.4386    3.5162    5.3520 C.ar    1  UNL1       -0.0147
      4 C          11.3443    2.0955    2.9599 C.ar    1  UNL1       -0.0147
      5 C           9.7290    0.9536    6.1335 C.ar    1  UNL1       -0.0535
      6 C          10.4871   -1.6832    5.6894 C.ar    1  UNL1       -0.0611
      7 C           8.9751   -0.0870    6.6501 C.ar    1  UNL1       -0.0611
      8 C          10.6401    1.0903    2.3081 C.ar    1  UNL1       -0.0535
      9 C          10.1828    4.0518    5.0778 C.ar    1  UNL1       -0.0535
     10 C          11.2430   -0.6484    5.1760 C.ar    1  UNL1       -0.0535
     11 C           9.3463   -1.4013    6.4250 C.ar    1  UNL1       -0.0617
     12 C          11.6713    3.2596    2.2680 C.ar    1  UNL1       -0.0535
     13 C          12.3340    4.2314    6.1374 C.ar    1  UNL1       -0.0535
     14 C          10.7146    5.9743    6.4141 C.ar    1  UNL1       -0.0617
     15 C          11.2800    3.4222    0.9539 C.ar    1  UNL1       -0.0611
     16 C          10.5734    2.4190    0.3098 C.ar    1  UNL1       -0.0617
     17 C           9.8246    5.2751    5.6133 C.ar    1  UNL1       -0.0611
     18 C          10.2555    1.2550    0.9885 C.ar    1  UNL1       -0.0611
     19 C          11.9725    5.4554    6.6713 C.ar    1  UNL1       -0.0611
     20 H          12.1555   -0.8506    4.6217 H       1  UNL1        0.0624
     21 H          10.7887   -2.7083    5.5288 H       1  UNL1        0.0618
     22 H           8.7555   -2.2073    6.8349 H       1  UNL1        0.0618
     23 H           8.0964    0.1316    7.2398 H       1  UNL1        0.0618
     24 H           9.4446    1.9764    6.3332 H       1  UNL1        0.0624
     25 H           9.4967    3.5152    4.4357 H       1  UNL1        0.0624
     26 H           8.8480    5.6877    5.4041 H       1  UNL1        0.0618
     27 H          10.4279    6.9292    6.8297 H       1  UNL1        0.0618
     28 H          12.6722    6.0075    7.2816 H       1  UNL1        0.0618
     29 H          13.3180    3.8109    6.3200 H       1  UNL1        0.0624
     30 H          12.2306    4.0378    2.7687 H       1  UNL1        0.0624
     31 H          11.5238    4.3345    0.4305 H       1  UNL1        0.0618
     32 H          10.2706    2.5445   -0.7192 H       1  UNL1        0.0618
     33 H           9.7040    0.4712    0.4894 H       1  UNL1        0.0618
     34 H          10.3855    0.1809    2.8352 H       1  UNL1        0.0624
@<TRIPOS>BOND
     1    32    16    1
     2    16    15   ar
     3    16    18   ar
     4    31    15    1
     5    33    18    1
     6    15    12   ar
     7    18     8   ar
     8    12    30    1
     9    12     4   ar
    10     8    34    1
    11     8     4   ar
    12     4     1    1
    13    25     9    1
    14    20    10    1
    15     1     3    1
    16     1     2    1
    17     9     3   ar
    18     9    17   ar
    19    10     2   ar
    20    10     6   ar
    21     3    13   ar
    22     2     5   ar
    23    26    17    1
    24    21     6    1
    25    17    14   ar
    26     6    11   ar
    27     5    24    1
    28     5     7   ar
    29    13    29    1
    30    13    19   ar
    31    14    19   ar
    32    14    27    1
    33    11     7   ar
    34    11    22    1
    35     7    23    1
    36    19    28    1
