@<TRIPOS>MOLECULE
1
 12 11 0 0 0
SMALL
GASTEIGER

@<TRIPOS>ATOM
      1 P           1.2016    2.6942    2.2766 P.3     1  UNL1        0.0382
      2 O           3.0861    3.5217    0.0984 O.2     1  UNL1       -0.4913
      3 C           2.0718    2.9468    0.7156 C.2     1  UNL1        0.1294
      4 C           1.0115    2.1574    0.5516 C.2     1  UNL1       -0.0155
      5 C           3.1672    3.2793   -1.3088 C.3     1  UNL1        0.0869
      6 C           4.4274    3.9453   -1.8291 C.3     1  UNL1       -0.0307
      7 H           0.4441    1.6308   -0.1870 H       1  UNL1        0.0656
      8 H           2.2733    3.6897   -1.7946 H       1  UNL1        0.0694
      9 H           3.1914    2.1961   -1.4853 H       1  UNL1        0.0694
     10 H           4.5154    3.7819   -2.8992 H       1  UNL1        0.0262
     11 H           5.3004    3.5317   -1.3311 H       1  UNL1        0.0262
     12 H           4.3901    5.0134   -1.6332 H       1  UNL1        0.0262
@<TRIPOS>BOND
     1    10     6    1
     2     6    12    1
     3     6    11    1
     4     6     5    1
     5     8     5    1
     6     9     5    1
     7     5     2    1
     8     7     4    1
     9     2     3    1
    10     4     3    2
    11     3     1    1
