@<TRIPOS>MOLECULE
1
 13 12 0 0 0
SMALL
GASTEIGER

@<TRIPOS>ATOM
      1 P           0.8395    5.0252    3.6646 P.3     1  UNL1       -0.1154
      2 C          -0.0603    5.0528    5.2671 C.3     1  UNL1       -0.0447
      3 C          -0.3446    5.9755    2.6278 C.3     1  UNL1       -0.0447
      4 C           2.0893    6.3292    3.9769 C.3     1  UNL1       -0.0447
      5 H          -0.3161    6.0758    5.5431 H       1  UNL1        0.0277
      6 H          -0.9713    4.4638    5.1862 H       1  UNL1        0.0277
      7 H           0.5761    4.6172    6.0350 H       1  UNL1        0.0277
      8 H          -0.5523    6.9443    3.0824 H       1  UNL1        0.0277
      9 H           0.0908    6.1233    1.6416 H       1  UNL1        0.0277
     10 H          -1.2747    5.4215    2.5259 H       1  UNL1        0.0277
     11 H           1.6054    7.2344    4.3456 H       1  UNL1        0.0277
     12 H           2.8111    5.9742    4.7107 H       1  UNL1        0.0277
     13 H           2.6215    6.5471    3.0520 H       1  UNL1        0.0277
@<TRIPOS>BOND
     1     9     3    1
     2    10     3    1
     3     3     8    1
     4     3     1    1
     5    13     4    1
     6     1     4    1
     7     1     2    1
     8     4    11    1
     9     4    12    1
    10     6     2    1
    11     2     5    1
    12     2     7    1
