@<TRIPOS>MOLECULE
1
 34 36 0 0 0
SMALL
GASTEIGER

@<TRIPOS>ATOM
      1 P           4.7839    0.3564    4.3046 P.3     1  UNL1       -0.0131
      2 C           6.0890   -0.7290    3.6161 C.ar    1  UNL1       -0.0147
      3 C           6.6765   -1.7210    4.3995 C.ar    1  UNL1       -0.0535
      4 C           7.6547   -2.5380    3.8656 C.ar    1  UNL1       -0.0611
      5 C           8.0537   -2.3760    2.5475 C.ar    1  UNL1       -0.0617
      6 C           7.4720   -1.3938    1.7643 C.ar    1  UNL1       -0.0611
      7 C           6.4933   -0.5728    2.2974 C.ar    1  UNL1       -0.0535
      8 C           3.8559   -0.9270    5.2151 C.ar    1  UNL1       -0.0147
      9 C           3.4470   -2.0326    4.4697 C.ar    1  UNL1       -0.0535
     10 C           2.7159   -3.0437    5.0610 C.ar    1  UNL1       -0.0611
     11 C           2.3736   -2.9568    6.4020 C.ar    1  UNL1       -0.0617
     12 C           2.7695   -1.8580    7.1447 C.ar    1  UNL1       -0.0611
     13 C           3.5085   -0.8445    6.5573 C.ar    1  UNL1       -0.0535
     14 C           5.6843    1.2277    5.6350 C.ar    1  UNL1       -0.0147
     15 C           7.0616    1.1518    5.8072 C.ar    1  UNL1       -0.0535
     16 C           7.6775    1.8877    6.8055 C.ar    1  UNL1       -0.0611
     17 C           6.9298    2.7075    7.6333 C.ar    1  UNL1       -0.0617
     18 C           5.5595    2.8068    7.4494 C.ar    1  UNL1       -0.0611
     19 C           4.9403    2.0814    6.4487 C.ar    1  UNL1       -0.0535
     20 H           6.3601   -1.8469    5.4265 H       1  UNL1        0.0624
     21 H           8.1069   -3.3055    4.4767 H       1  UNL1        0.0618
     22 H           8.8157   -3.0188    2.1321 H       1  UNL1        0.0618
     23 H           7.7785   -1.2701    0.7359 H       1  UNL1        0.0618
     24 H           6.0212    0.1902    1.6945 H       1  UNL1        0.0624
     25 H           3.7117   -2.0901    3.4226 H       1  UNL1        0.0624
     26 H           2.4069   -3.8985    4.4778 H       1  UNL1        0.0618
     27 H           1.7980   -3.7444    6.8652 H       1  UNL1        0.0618
     28 H           2.5028   -1.7873    8.1891 H       1  UNL1        0.0618
     29 H           3.8169    0.0044    7.1485 H       1  UNL1        0.0624
     30 H           7.6580    0.5222    5.1624 H       1  UNL1        0.0624
     31 H           8.7483    1.8216    6.9338 H       1  UNL1        0.0618
     32 H           7.4151    3.2772    8.4119 H       1  UNL1        0.0618
     33 H           4.9727    3.4586    8.0799 H       1  UNL1        0.0618
     34 H           3.8780    2.1854    6.2775 H       1  UNL1        0.0624
@<TRIPOS>BOND
     1    23     6    1
     2    24     7    1
     3     6     7   ar
     4     6     5   ar
     5    22     5    1
     6     7     2   ar
     7     5     4   ar
     8    25     9    1
     9     2     1    1
    10     2     3   ar
    11     4     3   ar
    12     4    21    1
    13     1     8    1
    14     1    14    1
    15     3    20    1
    16     9    10   ar
    17     9     8   ar
    18    26    10    1
    19    10    11   ar
    20    30    15    1
    21     8    13   ar
    22    14    15   ar
    23    14    19   ar
    24    15    16   ar
    25    34    19    1
    26    11    27    1
    27    11    12   ar
    28    19    18   ar
    29    13    12   ar
    30    13    29    1
    31    16    31    1
    32    16    17   ar
    33    12    28    1
    34    18    17   ar
    35    18    33    1
    36    17    32    1
