@<TRIPOS>MOLECULE
1
 13 12 0 0 0
SMALL
GASTEIGER

@<TRIPOS>ATOM
      1 P           4.1773    5.2960   -0.2415 P.3     1  UNL1       -0.1154
      2 C           3.7504    5.9290   -1.9179 C.3     1  UNL1       -0.0447
      3 C           5.6624    4.3126   -0.6623 C.3     1  UNL1       -0.0447
      4 C           5.0054    6.7781    0.4519 C.3     1  UNL1       -0.0447
      5 H           4.5941    6.4717   -2.3432 H       1  UNL1        0.0277
      6 H           3.4997    5.0871   -2.5611 H       1  UNL1        0.0277
      7 H           2.8891    6.5918   -1.8513 H       1  UNL1        0.0277
      8 H           6.2800    4.8679   -1.3687 H       1  UNL1        0.0277
      9 H           6.2259    4.1269    0.2495 H       1  UNL1        0.0277
     10 H           5.3736    3.3550   -1.0895 H       1  UNL1        0.0277
     11 H           5.8426    7.0637   -0.1853 H       1  UNL1        0.0277
     12 H           4.3014    7.6054    0.5205 H       1  UNL1        0.0277
     13 H           5.3740    6.5322    1.4470 H       1  UNL1        0.0277
@<TRIPOS>BOND
     1     6     2    1
     2     5     2    1
     3     2     7    1
     4     2     1    1
     5     8     3    1
     6    10     3    1
     7     3     1    1
     8     3     9    1
     9     1     4    1
    10    11     4    1
    11     4    12    1
    12     4    13    1
