@<TRIPOS>MOLECULE
1
 13 12 0 0 0
SMALL
GASTEIGER

@<TRIPOS>ATOM
      1 P           1.6342    3.0429   -0.5218 P.3     1  UNL1       -0.1154
      2 C           0.6098    3.7038   -1.9060 C.3     1  UNL1       -0.0447
      3 C           2.7435    1.9458   -1.4815 C.3     1  UNL1       -0.0447
      4 C           0.4529    1.8222    0.1611 C.3     1  UNL1       -0.0447
      5 H           0.3554    2.8971   -2.5931 H       1  UNL1        0.0277
      6 H          -0.3070    4.1333   -1.5072 H       1  UNL1        0.0277
      7 H           1.1568    4.4776   -2.4404 H       1  UNL1        0.0277
      8 H           2.1552    1.2326   -2.0583 H       1  UNL1        0.0277
      9 H           3.3478    2.5508   -2.1560 H       1  UNL1        0.0277
     10 H           3.4050    1.4180   -0.7975 H       1  UNL1        0.0277
     11 H           0.1247    1.1276   -0.6118 H       1  UNL1        0.0277
     12 H           0.9427    1.2850    0.9691 H       1  UNL1        0.0277
     13 H          -0.4094    2.3506    0.5652 H       1  UNL1        0.0277
@<TRIPOS>BOND
     1     5     2    1
     2     7     2    1
     3     9     3    1
     4     8     3    1
     5     2     6    1
     6     2     1    1
     7     3    10    1
     8     3     1    1
     9    11     4    1
    10     1     4    1
    11     4    13    1
    12     4    12    1
