@<TRIPOS>MOLECULE
1
 22 21 0 0 0
SMALL
GASTEIGER

@<TRIPOS>ATOM
      1 P           3.4082    3.8506    3.2644 P.3     1  UNL1       -0.1067
      2 C           5.2521    3.6587    3.0413 C.3     1  UNL1       -0.0351
      3 C           6.0137    4.7462    2.2934 C.3     1  UNL1       -0.0613
      4 C           3.3612    5.5456    4.0164 C.3     1  UNL1       -0.0351
      5 C           4.0920    5.6232    5.3498 C.3     1  UNL1       -0.0613
      6 C           2.9054    4.2838    1.5356 C.3     1  UNL1       -0.0351
      7 C           2.9404    3.0436    0.6508 C.3     1  UNL1       -0.0613
      8 H           5.6666    3.5567    4.0472 H       1  UNL1        0.0310
      9 H           5.3999    2.7037    2.5316 H       1  UNL1        0.0310
     10 H           7.0789    4.5156    2.3082 H       1  UNL1        0.0233
     11 H           5.8782    5.7209    2.7541 H       1  UNL1        0.0233
     12 H           5.7039    4.8071    1.2535 H       1  UNL1        0.0233
     13 H           3.7791    6.2610    3.3037 H       1  UNL1        0.0310
     14 H           2.3113    5.8017    4.1628 H       1  UNL1        0.0310
     15 H           3.9125    6.5871    5.8233 H       1  UNL1        0.0233
     16 H           5.1661    5.5046    5.2234 H       1  UNL1        0.0233
     17 H           3.7354    4.8414    6.0176 H       1  UNL1        0.0233
     18 H           1.8880    4.6786    1.5862 H       1  UNL1        0.0310
     19 H           3.5429    5.0751    1.1370 H       1  UNL1        0.0310
     20 H           2.4457    3.2263   -0.3016 H       1  UNL1        0.0233
     21 H           2.4261    2.2254    1.1665 H       1  UNL1        0.0233
     22 H           3.9644    2.7325    0.4518 H       1  UNL1        0.0233
@<TRIPOS>BOND
     1    20     7    1
     2    22     7    1
     3     7    21    1
     4     7     6    1
     5    19     6    1
     6    12     3    1
     7     6    18    1
     8     6     1    1
     9     3    10    1
    10     3    11    1
    11     3     2    1
    12     9     2    1
    13     2     1    1
    14     2     8    1
    15     1     4    1
    16    13     4    1
    17     4    14    1
    18     4     5    1
    19    16     5    1
    20     5    15    1
    21     5    17    1
