@<TRIPOS>MOLECULE
1
 22 21 0 0 0
SMALL
GASTEIGER

@<TRIPOS>ATOM
      1 P           0.0880    0.8830    3.4888 P.3     1  UNL1       -0.1067
      2 C           0.2260   -0.5784    2.3381 C.3     1  UNL1       -0.0351
      3 C          -1.0360   -1.3651    2.0085 C.3     1  UNL1       -0.0613
      4 C          -1.0087    0.2233    4.8389 C.3     1  UNL1       -0.0351
      5 C          -0.4167   -0.8936    5.6845 C.3     1  UNL1       -0.0613
      6 C          -1.2462    1.8273    2.6093 C.3     1  UNL1       -0.0351
      7 C          -0.7904    2.3682    1.2620 C.3     1  UNL1       -0.0613
      8 H           0.6560   -0.1755    1.4167 H       1  UNL1        0.0310
      9 H           0.9720   -1.2547    2.7580 H       1  UNL1        0.0310
     10 H          -0.7875   -2.1747    1.3227 H       1  UNL1        0.0233
     11 H          -1.7824   -0.7404    1.5255 H       1  UNL1        0.0233
     12 H          -1.4755   -1.8061    2.8995 H       1  UNL1        0.0233
     13 H          -1.2218    1.0813    5.4791 H       1  UNL1        0.0310
     14 H          -1.9509   -0.1043    4.3922 H       1  UNL1        0.0310
     15 H          -1.1193   -1.1832    6.4653 H       1  UNL1        0.0233
     16 H           0.5022   -0.5634    6.1604 H       1  UNL1        0.0233
     17 H          -0.2016   -1.7748    5.0832 H       1  UNL1        0.0233
     18 H          -2.1275    1.1923    2.4895 H       1  UNL1        0.0310
     19 H          -1.5226    2.6581    3.2615 H       1  UNL1        0.0310
     20 H          -1.5247    3.0663    0.8654 H       1  UNL1        0.0233
     21 H          -0.6520    1.5673    0.5382 H       1  UNL1        0.0233
     22 H           0.1515    2.8991    1.3774 H       1  UNL1        0.0233
@<TRIPOS>BOND
     1    21     7    1
     2    20     7    1
     3     7    22    1
     4     7     6    1
     5    10     3    1
     6     8     2    1
     7    11     3    1
     8     3     2    1
     9     3    12    1
    10     2     9    1
    11     2     1    1
    12    18     6    1
    13     6    19    1
    14     6     1    1
    15     1     4    1
    16    14     4    1
    17     4    13    1
    18     4     5    1
    19    17     5    1
    20     5    16    1
    21     5    15    1
