@<TRIPOS>MOLECULE
1
 22 21 0 0 0
SMALL
GASTEIGER

@<TRIPOS>ATOM
      1 P           3.5650    0.4488    3.9821 P.3     1  UNL1       -0.1067
      2 C           3.0451   -1.1236    4.8430 C.3     1  UNL1       -0.0351
      3 C           3.9689   -2.3340    4.7980 C.3     1  UNL1       -0.0613
      4 C           4.5552   -0.2120    2.5497 C.3     1  UNL1       -0.0351
      5 C           3.7075   -0.8436    1.4568 C.3     1  UNL1       -0.0613
      6 C           5.0145    0.8527    5.0806 C.3     1  UNL1       -0.0351
      7 C           4.5815    1.6728    6.2868 C.3     1  UNL1       -0.0613
      8 H           2.8872   -0.8240    5.8842 H       1  UNL1        0.0310
      9 H           2.0692   -1.4047    4.4479 H       1  UNL1        0.0310
     10 H           3.5672   -3.1159    5.4417 H       1  UNL1        0.0233
     11 H           4.9701   -2.0983    5.1516 H       1  UNL1        0.0233
     12 H           4.0458   -2.7380    3.7918 H       1  UNL1        0.0233
     13 H           5.0952    0.6401    2.1293 H       1  UNL1        0.0310
     14 H           5.2961   -0.9209    2.9262 H       1  UNL1        0.0310
     15 H           4.3329   -1.1538    0.6206 H       1  UNL1        0.0233
     16 H           2.9768   -0.1261    1.0912 H       1  UNL1        0.0233
     17 H           3.1755   -1.7172    1.8260 H       1  UNL1        0.0233
     18 H           5.4979   -0.0719    5.4042 H       1  UNL1        0.0310
     19 H           5.7397    1.4127    4.4901 H       1  UNL1        0.0310
     20 H           5.4433    2.0685    6.8225 H       1  UNL1        0.0233
     21 H           3.9997    1.0687    6.9798 H       1  UNL1        0.0233
     22 H           3.9589    2.5075    5.9549 H       1  UNL1        0.0233
@<TRIPOS>BOND
     1    15     5    1
     2    16     5    1
     3     5    17    1
     4     5     4    1
     5    13     4    1
     6     4    14    1
     7     4     1    1
     8    12     3    1
     9     1     2    1
    10     1     6    1
    11     9     2    1
    12    19     6    1
    13     3     2    1
    14     3    11    1
    15     3    10    1
    16     2     8    1
    17     6    18    1
    18     6     7    1
    19    22     7    1
    20     7    20    1
    21     7    21    1
