@<TRIPOS>MOLECULE
1,2,3,6,7
 59 59 0 0 0
SMALL
GASTEIGER

@<TRIPOS>ATOM
      1 P           2.0085    5.5075    5.8776 P.3     1  UNL1        0.0000
      2 P           2.4019    6.6356    4.1055 P.3     1  UNL1        0.0000
      3 P          -0.4531    7.1929    4.9542 P.3     1  UNL1        0.0000
      4 SI          5.0548    5.7080    3.2581 Si      1  UNL1        0.0000
      5 SI          2.3570    3.7893    2.7504 Si      1  UNL1        0.0000
      6 C           0.7704    7.2749    3.7194 C.3     1  UNL1        0.0000
      7 C           0.4232    6.2049    6.1486 C.3     1  UNL1        0.0000
      8 C           0.5312    8.0981    2.4658 C.3     1  UNL1        0.0000
      9 C           1.8014    8.8414    2.0426 C.3     1  UNL1        0.0000
     10 C          -0.5746    9.1311    2.7046 C.3     1  UNL1        0.0000
     11 C           0.0877    7.1504    1.3412 C.3     1  UNL1        0.0000
     12 C          -0.3316    5.7556    7.3919 C.3     1  UNL1        0.0000
     13 C          -1.5397    6.6562    7.6588 C.3     1  UNL1        0.0000
     14 C          -0.8189    4.3200    7.1489 C.3     1  UNL1        0.0000
     15 C           0.5896    5.7850    8.6150 C.3     1  UNL1        0.0000
     16 C           3.1735    5.5329    2.8472 C.3     1  UNL1        0.0000
     17 C           2.6969    3.1525    0.9867 C.3     1  UNL1        0.0000
     18 C           3.1155    2.5960    4.0270 C.3     1  UNL1        0.0000
     19 C           0.4683    3.8583    3.0155 C.3     1  UNL1        0.0000
     20 C           5.3616    5.3709    5.1043 C.3     1  UNL1        0.0000
     21 C           5.5070    7.5261    2.8927 C.3     1  UNL1        0.0000
     22 C           6.0720    4.5419    2.1500 C.3     1  UNL1        0.0000
     23 H           2.1170    9.5266    2.8286 H       1  UNL1        0.0000
     24 H           1.6119    9.4192    1.1397 H       1  UNL1        0.0000
     25 H           2.6174    8.1507    1.8371 H       1  UNL1        0.0000
     26 H          -0.3045    9.7930    3.5280 H       1  UNL1        0.0000
     27 H          -1.5174    8.6396    2.9461 H       1  UNL1        0.0000
     28 H          -0.7255    9.7340    1.8113 H       1  UNL1        0.0000
     29 H          -0.8245    6.6304    1.6292 H       1  UNL1        0.0000
     30 H           0.8561    6.4092    1.1319 H       1  UNL1        0.0000
     31 H          -0.1091    7.7141    0.4315 H       1  UNL1        0.0000
     32 H          -2.2631    6.5879    6.8453 H       1  UNL1        0.0000
     33 H          -1.2275    7.6944    7.7648 H       1  UNL1        0.0000
     34 H          -2.0362    6.3517    8.5779 H       1  UNL1        0.0000
     35 H          -1.4623    4.2828    6.2703 H       1  UNL1        0.0000
     36 H          -1.3827    3.9596    8.0065 H       1  UNL1        0.0000
     37 H           0.0294    3.6554    6.9841 H       1  UNL1        0.0000
     38 H           1.4347    5.1102    8.4770 H       1  UNL1        0.0000
     39 H           0.0464    5.4736    9.5046 H       1  UNL1        0.0000
     40 H           0.9732    6.7929    8.7744 H       1  UNL1        0.0000
     41 H           3.0249    6.0304    1.8857 H       1  UNL1        0.0000
     42 H           2.2682    3.8006    0.2291 H       1  UNL1        0.0000
     43 H           2.2647    2.1670    0.8538 H       1  UNL1        0.0000
     44 H           3.7598    3.0739    0.7894 H       1  UNL1        0.0000
     45 H           2.9236    2.9227    5.0453 H       1  UNL1        0.0000
     46 H           4.1890    2.5001    3.9037 H       1  UNL1        0.0000
     47 H           2.6829    1.6064    3.9150 H       1  UNL1        0.0000
     48 H           0.2000    4.5167    3.8391 H       1  UNL1        0.0000
     49 H           0.0823    2.8718    3.2542 H       1  UNL1        0.0000
     50 H          -0.0558    4.2074    2.1315 H       1  UNL1        0.0000
     51 H           4.9523    4.4182    5.4250 H       1  UNL1        0.0000
     52 H           4.9056    6.1490    5.7141 H       1  UNL1        0.0000
     53 H           6.4237    5.3646    5.3291 H       1  UNL1        0.0000
     54 H           4.8763    8.2040    3.4655 H       1  UNL1        0.0000
     55 H           5.3944    7.7747    1.8410 H       1  UNL1        0.0000
     56 H           6.5368    7.7345    3.1648 H       1  UNL1        0.0000
     57 H           5.8613    3.4974    2.3498 H       1  UNL1        0.0000
     58 H           7.1302    4.7017    2.3228 H       1  UNL1        0.0000
     59 H           5.8828    4.7237    1.0974 H       1  UNL1        0.0000
@<TRIPOS>BOND
     1    42    17    1
     2    31    11    1
     3    44    17    1
     4    43    17    1
     5    17     5    1
     6    59    22    1
     7    30    11    1
     8    24     9    1
     9    11    29    1
    10    11     8    1
    11    28    10    1
    12    25     9    1
    13    55    21    1
    14    41    16    1
    15     9     8    1
    16     9    23    1
    17    50    19    1
    18    22    58    1
    19    22    57    1
    20    22     4    1
    21     8    10    1
    22     8     6    1
    23    10    27    1
    24    10    26    1
    25     5    16    1
    26     5    19    1
    27     5    18    1
    28    16     4    1
    29    16     2    1
    30    21    56    1
    31    21     4    1
    32    21    54    1
    33    19    49    1
    34    19    48    1
    35     4    20    1
    36     6     2    1
    37     6     3    1
    38    46    18    1
    39    47    18    1
    40    18    45    1
    41     2     1    1
    42     3     7    1
    43    20    53    1
    44    20    51    1
    45    20    52    1
    46     1     7    1
    47     7    12    1
    48    35    14    1
    49    32    13    1
    50    37    14    1
    51    14    12    1
    52    14    36    1
    53    12    13    1
    54    12    15    1
    55    13    33    1
    56    13    34    1
    57    38    15    1
    58    15    40    1
    59    15    39    1
