@<TRIPOS>MOLECULE
1,2,3,6,7
 59 59 0 0 0
SMALL
GASTEIGER

@<TRIPOS>ATOM
      1 P           2.3937    2.8279    3.5936 P.3     1  UNL1        0.0000
      2 P          -0.3800    2.0563    4.5243 P.3     1  UNL1        0.0000
      3 P          -0.0685    1.1600    2.6272 P.3     1  UNL1        0.0000
      4 SI         -0.3166   -0.8652    5.5961 Si      1  UNL1        0.0000
      5 SI         -3.0297    1.1057    5.4016 Si      1  UNL1        0.0000
      6 C           1.4655    1.9558    2.3433 C.3     1  UNL1        0.0000
      7 C           1.2253    2.7551    4.8809 C.3     1  UNL1        0.0000
      8 C           2.1703    1.6470    1.0298 C.3     1  UNL1        0.0000
      9 C           1.1956    1.7670   -0.1443 C.3     1  UNL1        0.0000
     10 C           2.6929    0.2056    1.1186 C.3     1  UNL1        0.0000
     11 C           3.3543    2.5890    0.7993 C.3     1  UNL1        0.0000
     12 C           1.5241    3.4132    6.2156 C.3     1  UNL1        0.0000
     13 C           0.2752    4.0682    6.8102 C.3     1  UNL1        0.0000
     14 C           2.6044    4.4871    6.0544 C.3     1  UNL1        0.0000
     15 C           2.0440    2.3272    7.1695 C.3     1  UNL1        0.0000
     16 C          -1.1318    0.8807    5.7094 C.3     1  UNL1        0.0000
     17 C          -1.1495   -1.9197    4.2467 C.3     1  UNL1        0.0000
     18 C           1.5547   -0.7526    5.2323 C.3     1  UNL1        0.0000
     19 C          -0.5622   -1.6687    7.3053 C.3     1  UNL1        0.0000
     20 C          -3.9865   -0.1246    6.4922 C.3     1  UNL1        0.0000
     21 C          -3.4337    2.9008    5.9051 C.3     1  UNL1        0.0000
     22 C          -3.4432    0.8807    3.5600 C.3     1  UNL1        0.0000
     23 H           0.3620    1.0734   -0.0235 H       1  UNL1        0.0000
     24 H           1.7001    1.5352   -1.0799 H       1  UNL1        0.0000
     25 H           0.7968    2.7799   -0.2057 H       1  UNL1        0.0000
     26 H           1.8634   -0.4913    1.2423 H       1  UNL1        0.0000
     27 H           3.3635    0.0994    1.9713 H       1  UNL1        0.0000
     28 H           3.2376   -0.0568    0.2144 H       1  UNL1        0.0000
     29 H           4.1162    2.4492    1.5678 H       1  UNL1        0.0000
     30 H           3.0310    3.6289    0.8130 H       1  UNL1        0.0000
     31 H           3.8088    2.3855   -0.1683 H       1  UNL1        0.0000
     32 H           0.5069    4.4936    7.7852 H       1  UNL1        0.0000
     33 H          -0.5316    3.3483    6.9366 H       1  UNL1        0.0000
     34 H          -0.0773    4.8704    6.1637 H       1  UNL1        0.0000
     35 H           3.5390    4.0462    5.7055 H       1  UNL1        0.0000
     36 H           2.7936    4.9762    7.0080 H       1  UNL1        0.0000
     37 H           2.2857    5.2431    5.3354 H       1  UNL1        0.0000
     38 H           2.9377    1.8630    6.7550 H       1  UNL1        0.0000
     39 H           1.2938    1.5543    7.3247 H       1  UNL1        0.0000
     40 H           2.2976    2.7654    8.1326 H       1  UNL1        0.0000
     41 H          -0.9340    1.2866    6.7042 H       1  UNL1        0.0000
     42 H          -2.2053   -2.0703    4.4466 H       1  UNL1        0.0000
     43 H          -0.6830   -2.8988    4.1959 H       1  UNL1        0.0000
     44 H          -1.0562   -1.4613    3.2657 H       1  UNL1        0.0000
     45 H           2.1391   -0.6010    6.1347 H       1  UNL1        0.0000
     46 H           1.7826    0.0668    4.5513 H       1  UNL1        0.0000
     47 H           1.9095   -1.6663    4.7645 H       1  UNL1        0.0000
     48 H          -0.0786   -1.1049    8.0968 H       1  UNL1        0.0000
     49 H          -0.1392   -2.6668    7.3119 H       1  UNL1        0.0000
     50 H          -1.6127   -1.7556    7.5575 H       1  UNL1        0.0000
     51 H          -3.7320   -0.0143    7.5408 H       1  UNL1        0.0000
     52 H          -3.7984   -1.1545    6.2107 H       1  UNL1        0.0000
     53 H          -5.0515    0.0522    6.3952 H       1  UNL1        0.0000
     54 H          -3.2755    3.0784    6.9656 H       1  UNL1        0.0000
     55 H          -4.4686    3.1452    5.6872 H       1  UNL1        0.0000
     56 H          -2.8116    3.6043    5.3526 H       1  UNL1        0.0000
     57 H          -2.8812    1.5906    2.9542 H       1  UNL1        0.0000
     58 H          -4.4970    1.0654    3.3752 H       1  UNL1        0.0000
     59 H          -3.2158   -0.1164    3.1978 H       1  UNL1        0.0000
@<TRIPOS>BOND
     1    24     9    1
     2    25     9    1
     3    31    11    1
     4     9    23    1
     5     9     8    1
     6    28    10    1
     7    11    30    1
     8    11     8    1
     9    11    29    1
    10     8    10    1
    11     8     6    1
    12    10    26    1
    13    10    27    1
    14     6     3    1
    15     6     1    1
    16     3     2    1
    17    57    22    1
    18    59    22    1
    19    44    17    1
    20    58    22    1
    21    22     5    1
    22     1     7    1
    23    43    17    1
    24    17    42    1
    25    17     4    1
    26     2     7    1
    27     2    16    1
    28    46    18    1
    29    47    18    1
    30     7    12    1
    31    18     4    1
    32    18    45    1
    33    37    14    1
    34    56    21    1
    35     5    16    1
    36     5    21    1
    37     5    20    1
    38     4    16    1
    39     4    19    1
    40    55    21    1
    41    35    14    1
    42    16    41    1
    43    21    54    1
    44    14    12    1
    45    14    36    1
    46    34    13    1
    47    52    20    1
    48    12    13    1
    49    12    15    1
    50    53    20    1
    51    20    51    1
    52    38    15    1
    53    13    33    1
    54    13    32    1
    55    15    39    1
    56    15    40    1
    57    19    49    1
    58    19    50    1
    59    19    48    1
