@<TRIPOS>MOLECULE
1,2,3,26
 60 59 0 0 0
SMALL
GASTEIGER

@<TRIPOS>ATOM
      1 N           1.9748    2.2567    3.7435 N.3     1  UNL1        0.0000
      2 N           4.2734    4.8581    2.4492 N.3     1  UNL1        0.0000
      3 N           1.6704    5.2966    4.9526 N.3     1  UNL1        0.0000
      4 N           1.4237    4.4817    2.2729 N.3     1  UNL1        0.0000
      5 SI          3.2689    1.1162    3.7253 Si      1  UNL1        0.0000
      6 SI          5.9751    4.8288    2.2991 Si      1  UNL1        0.0000
      7 SI          0.8675    4.6499    6.2995 Si      1  UNL1        0.0000
      8 C           0.7925    2.2025    2.9362 C.3     1  UNL1        0.0000
      9 H          -0.0990    2.4637    3.5349 H       1  UNL1        0.0000
     10 H           0.6046    1.2035    2.5110 H       1  UNL1        0.0000
     11 C           3.6014    4.7226    1.1694 C.3     1  UNL1        0.0000
     12 H           3.5991    3.6689    0.8273 H       1  UNL1        0.0000
     13 H           4.1055    5.3041    0.3806 H       1  UNL1        0.0000
     14 C           0.9788    6.1430    4.0097 C.3     1  UNL1        0.0000
     15 H           1.6882    6.8681    3.5692 H       1  UNL1        0.0000
     16 H           0.1682    6.7265    4.4760 H       1  UNL1        0.0000
     17 C           0.9222    3.2035    1.7627 C.3     1  UNL1        0.0000
     18 H           1.6586    2.7955    1.0643 H       1  UNL1        0.0000
     19 H          -0.0357    3.3337    1.2308 H       1  UNL1        0.0000
     20 C           2.1573    5.2292    1.2551 C.3     1  UNL1        0.0000
     21 H           2.1937    6.2852    1.5443 H       1  UNL1        0.0000
     22 H           1.6634    5.1575    0.2700 H       1  UNL1        0.0000
     23 C           0.3672    5.2889    2.8821 C.3     1  UNL1        0.0000
     24 H          -0.3646    4.6214    3.3410 H       1  UNL1        0.0000
     25 H          -0.1442    5.9157    2.1314 H       1  UNL1        0.0000
     26 C           4.5141    2.2773    4.5552 C.3     1  UNL1        0.0000
     27 H           5.4829    2.2527    4.0476 H       1  UNL1        0.0000
     28 H           4.7009    2.0121    5.6050 H       1  UNL1        0.0000
     29 C           3.8079    0.6247    1.9326 C.3     1  UNL1        0.0000
     30 H           4.6071   -0.1090    1.9252 H       1  UNL1        0.0000
     31 H           4.1576    1.5027    1.3939 H       1  UNL1        0.0000
     32 H           2.9756    0.2021    1.3758 H       1  UNL1        0.0000
     33 C           2.8175   -0.5599    4.5716 C.3     1  UNL1        0.0000
     34 H           3.6577   -1.2467    4.5744 H       1  UNL1        0.0000
     35 H           1.9922   -1.0515    4.0654 H       1  UNL1        0.0000
     36 H           2.5191   -0.3982    5.6025 H       1  UNL1        0.0000
     37 C           6.9192    4.8758    3.9593 C.3     1  UNL1        0.0000
     38 H           6.9934    5.8845    4.3466 H       1  UNL1        0.0000
     39 H           7.9318    4.5230    3.7959 H       1  UNL1        0.0000
     40 H           6.4610    4.2415    4.7093 H       1  UNL1        0.0000
     41 C           6.5991    6.3832    1.3294 C.3     1  UNL1        0.0000
     42 H           6.1872    7.3050    1.7316 H       1  UNL1        0.0000
     43 H           6.3232    6.3362    0.2804 H       1  UNL1        0.0000
     44 H           7.6802    6.4634    1.3718 H       1  UNL1        0.0000
     45 C           6.6872    3.3418    1.2993 C.3     1  UNL1        0.0000
     46 H           6.2724    3.3159    0.2951 H       1  UNL1        0.0000
     47 H           6.4516    2.3937    1.7739 H       1  UNL1        0.0000
     48 H           7.7668    3.4005    1.1990 H       1  UNL1        0.0000
     49 C           1.9337    3.1653    6.8681 C.3     1  UNL1        0.0000
     50 H           2.8352    3.1104    6.2484 H       1  UNL1        0.0000
     51 H           1.3901    2.2364    6.7278 H       1  UNL1        0.0000
     52 H           2.2117    3.2255    7.9164 H       1  UNL1        0.0000
     53 C           0.7444    5.9280    7.7496 C.3     1  UNL1        0.0000
     54 H           1.6968    6.4024    7.9699 H       1  UNL1        0.0000
     55 H           0.3957    5.4576    8.6628 H       1  UNL1        0.0000
     56 H           0.0418    6.7193    7.5069 H       1  UNL1        0.0000
     57 C          -0.9539    4.0431    6.1161 C.3     1  UNL1        0.0000
     58 H          -1.0162    3.1576    5.4901 H       1  UNL1        0.0000
     59 H          -1.5807    4.8113    5.6708 H       1  UNL1        0.0000
     60 H          -1.3891    3.7921    7.0784 H       1  UNL1        0.0000
@<TRIPOS>BOND
     1    22    20    1
     2    43    41    1
     3    46    45    1
     4    13    11    1
     5    12    11    1
     6    18    17    1
     7    11    20    1
     8    11     2    1
     9    48    45    1
    10    19    17    1
    11    20    21    1
    12    20     4    1
    13    45    47    1
    14    45     6    1
    15    41    44    1
    16    41    42    1
    17    41     6    1
    18    32    29    1
    19    31    29    1
    20    17     4    1
    21    17     8    1
    22    30    29    1
    23    29     5    1
    24    25    23    1
    25     4    23    1
    26     6     2    1
    27     6    37    1
    28    10     8    1
    29    23    24    1
    30    23    14    1
    31     8     9    1
    32     8     1    1
    33    15    14    1
    34     5     1    1
    35     5    26    1
    36     5    33    1
    37    39    37    1
    38    37    38    1
    39    37    40    1
    40    14    16    1
    41    14     3    1
    42    27    26    1
    43    35    33    1
    44    26    28    1
    45    33    34    1
    46    33    36    1
    47     3     7    1
    48    58    57    1
    49    59    57    1
    50    57     7    1
    51    57    60    1
    52    50    49    1
    53     7    49    1
    54     7    53    1
    55    51    49    1
    56    49    52    1
    57    56    53    1
    58    53    54    1
    59    53    55    1
