@<TRIPOS>MOLECULE
3,5,7,64
 70 72 0 0 0
SMALL
GASTEIGER

@<TRIPOS>ATOM
      1 B           3.6834   10.2174   26.4619 B       1  UNL1        0.0000
      2 H           4.5823   10.8244   26.9235 H       1  UNL1        0.0000
      3 N           3.3373    8.3827   24.7348 N.3     1  UNL1        0.0000
      4 N           4.1633    9.2387   25.3736 N.pl3   1  UNL1        0.0000
      5 N           1.3678   10.7340   25.6427 N.3     1  UNL1        0.0000
      6 N           2.6323   11.1499   25.8440 N.pl3   1  UNL1        0.0000
      7 N           2.0950    8.4902   27.0318 N.3     1  UNL1        0.0000
      8 N           2.9776    9.3615   27.5037 N.pl3   1  UNL1        0.0000
      9 C           4.0486    7.7870   23.7632 C.3     1  UNL1        0.0000
     10 C           5.3574    8.2719   23.8071 C.2     1  UNL1        0.0000
     11 H           6.1805    8.0012   23.1804 H       1  UNL1        0.0000
     12 C           5.3912    9.1878   24.8389 C.2     1  UNL1        0.0000
     13 C           3.5348    6.8245   22.7222 C.3     1  UNL1        0.0000
     14 C           2.6268    7.6029   21.7621 C.3     1  UNL1        0.0000
     15 H           1.7895    8.0246   22.3104 H       1  UNL1        0.0000
     16 H           2.2428    6.9413   20.9891 H       1  UNL1        0.0000
     17 H           3.1805    8.4093   21.2845 H       1  UNL1        0.0000
     18 C           2.7536    5.6824   23.3679 C.3     1  UNL1        0.0000
     19 H           1.8534    6.0755   23.8236 H       1  UNL1        0.0000
     20 H           3.3598    5.1894   24.1246 H       1  UNL1        0.0000
     21 H           2.4778    4.9468   22.6158 H       1  UNL1        0.0000
     22 C           4.7015    6.2281   21.9249 C.3     1  UNL1        0.0000
     23 H           4.3154    5.5049   21.2098 H       1  UNL1        0.0000
     24 H           5.4001    5.7166   22.5828 H       1  UNL1        0.0000
     25 H           5.2352    6.9948   21.3690 H       1  UNL1        0.0000
     26 C           6.5554    9.9834   25.3090 C.3     1  UNL1        0.0000
     27 H           6.7590    9.7836   26.3591 H       1  UNL1        0.0000
     28 H           6.3699   11.0499   25.1989 H       1  UNL1        0.0000
     29 H           7.4316    9.7175   24.7232 H       1  UNL1        0.0000
     30 C           0.6328   11.8111   25.3665 C.3     1  UNL1        0.0000
     31 C           1.4640   12.9397   25.3355 C.2     1  UNL1        0.0000
     32 H           1.1913   13.9531   25.1244 H       1  UNL1        0.0000
     33 C           2.7253   12.4792   25.6484 C.2     1  UNL1        0.0000
     34 C          -0.8682   11.8379   25.2292 C.3     1  UNL1        0.0000
     35 C          -1.4961   10.6779   26.0039 C.3     1  UNL1        0.0000
     36 H          -1.2623   10.7737   27.0624 H       1  UNL1        0.0000
     37 H          -1.1155    9.7233   25.6533 H       1  UNL1        0.0000
     38 H          -2.5782   10.6895   25.8867 H       1  UNL1        0.0000
     39 C          -1.2694   11.7903   23.7494 C.3     1  UNL1        0.0000
     40 H          -0.8020   12.6095   23.2059 H       1  UNL1        0.0000
     41 H          -2.3496   11.8841   23.6525 H       1  UNL1        0.0000
     42 H          -0.9653   10.8562   23.2862 H       1  UNL1        0.0000
     43 C          -1.3995   13.1505   25.8267 C.3     1  UNL1        0.0000
     44 H          -1.0992   14.0073   25.2295 H       1  UNL1        0.0000
     45 H          -1.0300   13.2877   26.8406 H       1  UNL1        0.0000
     46 H          -2.4870   13.1258   25.8568 H       1  UNL1        0.0000
     47 C           3.9901   13.2534   25.7532 C.3     1  UNL1        0.0000
     48 H           4.7360   12.8632   25.0622 H       1  UNL1        0.0000
     49 H           4.3990   13.1979   26.7607 H       1  UNL1        0.0000
     50 H           3.7977   14.2951   25.5095 H       1  UNL1        0.0000
     51 C           1.6009    7.7804   28.0367 C.3     1  UNL1        0.0000
     52 C           2.1929    8.2193   29.2214 C.2     1  UNL1        0.0000
     53 H           2.0216    7.8612   30.2162 H       1  UNL1        0.0000
     54 C           3.0640    9.2293   28.8390 C.2     1  UNL1        0.0000
     55 C           0.5993    6.7519   27.6222 C.3     1  UNL1        0.0000
     56 C          -0.8152    7.2548   27.9293 C.3     1  UNL1        0.0000
     57 H          -0.9298    7.4474   28.9944 H       1  UNL1        0.0000
     58 H          -1.5499    6.5103   27.6303 H       1  UNL1        0.0000
     59 H          -1.0073    8.1751   27.3844 H       1  UNL1        0.0000
     60 C           0.8394    5.4226   28.3496 C.3     1  UNL1        0.0000
     61 H           1.8654    5.0903   28.2094 H       1  UNL1        0.0000
     62 H           0.1697    4.6584   27.9621 H       1  UNL1        0.0000
     63 H           0.6563    5.5355   29.4161 H       1  UNL1        0.0000
     64 C           0.8217    6.5913   26.1090 C.3     1  UNL1        0.0000
     65 H          -0.0682    6.1684   25.6482 H       1  UNL1        0.0000
     66 H           1.6492    5.8949   25.9665 H       1  UNL1        0.0000
     67 C           3.9579   10.0678   29.6804 C.3     1  UNL1        0.0000
     68 H           3.7241   11.1232   29.5501 H       1  UNL1        0.0000
     69 H           4.9997    9.9175   29.4009 H       1  UNL1        0.0000
     70 H           3.8326    9.8043   30.7270 H       1  UNL1        0.0000
@<TRIPOS>BOND
     1    16    14    1
     2    23    22    1
     3    17    14    1
     4    25    22    1
     5    14    15    1
     6    14    13    1
     7    22    24    1
     8    22    13    1
     9    21    18    1
    10    13    18    1
    11    13     9    1
    12    11    10    1
    13    40    39    1
    14    42    39    1
    15    18    19    1
    16    18    20    1
    17    41    39    1
    18    39    34    1
    19     9    10    1
    20     9     3    1
    21    10    12    2
    22    29    26    1
    23     3     4    1
    24    12    26    1
    25    12     4    1
    26    48    47    1
    27    32    31    1
    28    28    26    1
    29    34    30    1
    30    34    43    1
    31    34    35    1
    32    44    43    1
    33    26    27    1
    34    31    30    1
    35    31    33    2
    36    30     5    1
    37     4     1    1
    38    50    47    1
    39     5     6    1
    40    65    64    1
    41    33    47    1
    42    33     6    1
    43    37    35    1
    44    47    49    1
    45    43    46    1
    46    43    45    1
    47     6     1    1
    48    38    35    1
    49    66    64    1
    50    35    36    1
    51    64    55    1
    52     1     2    1
    53     1     8    1
    54     7     8    1
    55     7    51    1
    56    59    56    1
    57     8    54    1
    58    55    56    1
    59    55    51    1
    60    55    60    1
    61    58    56    1
    62    56    57    1
    63    62    60    1
    64    51    52    1
    65    61    60    1
    66    60    63    1
    67    54    52    2
    68    54    67    1
    69    52    53    1
    70    69    67    1
    71    68    67    1
    72    67    70    1
