@<TRIPOS>MOLECULE
25,62,76,77
 112 117 0 0 0
SMALL
GASTEIGER

@<TRIPOS>ATOM
      1 C           5.1430   10.5997    3.7618 C.3     1  UNL1        0.0000
      2 P           3.9620   10.1514    2.5206 P.3     1  UNL1        0.0000
      3 C           2.7218   11.4909    2.5381 C.ar    1  UNL1        0.0000
      4 C           1.7461   11.4005    3.5240 C.ar    1  UNL1        0.0000
      5 H           1.7566   10.5541    4.1981 H       1  UNL1        0.0000
      6 C           0.7714   12.3731    3.6419 C.ar    1  UNL1        0.0000
      7 H           0.0237   12.2968    4.4183 H       1  UNL1        0.0000
      8 C           0.7575   13.4448    2.7644 C.ar    1  UNL1        0.0000
      9 H          -0.0008   14.2088    2.8529 H       1  UNL1        0.0000
     10 C           1.7172   13.5328    1.7700 C.ar    1  UNL1        0.0000
     11 H           1.7038   14.3630    1.0785 H       1  UNL1        0.0000
     12 C           2.6972   12.5627    1.6553 C.ar    1  UNL1        0.0000
     13 H           3.4354   12.6396    0.8699 H       1  UNL1        0.0000
     14 C           4.7766   10.3207    0.9061 C.ar    1  UNL1        0.0000
     15 C           4.6234    9.3578   -0.0800 C.ar    1  UNL1        0.0000
     16 H           4.0465    8.4711    0.1389 H       1  UNL1        0.0000
     17 C           5.2086    9.5356   -1.3210 C.ar    1  UNL1        0.0000
     18 H           5.0830    8.7858   -2.0886 H       1  UNL1        0.0000
     19 C           5.9514   10.6754   -1.5785 C.ar    1  UNL1        0.0000
     20 H           6.4019   10.8189   -2.5496 H       1  UNL1        0.0000
     21 C           6.1266   11.6297   -0.5882 C.ar    1  UNL1        0.0000
     22 H           6.7183   12.5119   -0.7858 H       1  UNL1        0.0000
     23 C           5.5440   11.4541    0.6521 C.ar    1  UNL1        0.0000
     24 H           5.6912   12.1796    1.4407 H       1  UNL1        0.0000
     25 N           3.2285    8.7221    2.6909 N.3     1  UNL1        0.0000
     26 SI          1.7324    8.3293    1.8685 Si      1  UNL1        0.0000
     27 C           1.9189    6.6146    1.0363 C.3     1  UNL1        0.0000
     28 H           2.1985    5.8410    1.7441 H       1  UNL1        0.0000
     29 H           2.6447    6.6047    0.2280 H       1  UNL1        0.0000
     30 H           0.9618    6.3302    0.6121 H       1  UNL1        0.0000
     31 C           0.3216    8.2375    3.1677 C.3     1  UNL1        0.0000
     32 H           0.7047    8.2143    4.1879 H       1  UNL1        0.0000
     33 H          -0.2652    7.3361    3.0266 H       1  UNL1        0.0000
     34 H          -0.3526    9.0855    3.0873 H       1  UNL1        0.0000
     35 C           1.2059    9.5829    0.5258 C.3     1  UNL1        0.0000
     36 H           2.0628   10.0473    0.0476 H       1  UNL1        0.0000
     37 H           0.5954   10.3781    0.9416 H       1  UNL1        0.0000
     38 H           0.6227    9.0898   -0.2445 H       1  UNL1        0.0000
     39 P           6.4286    9.3990    3.8221 P.3     1  UNL1        0.0000
     40 C           7.4628    9.7052    2.3580 C.ar    1  UNL1        0.0000
     41 C           8.2609   10.8442    2.3504 C.ar    1  UNL1        0.0000
     42 H           8.2489   11.5033    3.2081 H       1  UNL1        0.0000
     43 C           9.0589   11.1255    1.2585 C.ar    1  UNL1        0.0000
     44 H           9.6831   12.0073    1.2598 H       1  UNL1        0.0000
     45 C           9.0605   10.2743    0.1646 C.ar    1  UNL1        0.0000
     46 H           9.6897   10.4896   -0.6865 H       1  UNL1        0.0000
     47 C           8.2505    9.1512    0.1591 C.ar    1  UNL1        0.0000
     48 H           8.2426    8.4932   -0.6976 H       1  UNL1        0.0000
     49 C           7.4501    8.8687    1.2515 C.ar    1  UNL1        0.0000
     50 H           6.8068    8.0017    1.2505 H       1  UNL1        0.0000
     51 C           7.5686    9.8269    5.1823 C.ar    1  UNL1        0.0000
     52 C           8.8380    9.2561    5.1280 C.ar    1  UNL1        0.0000
     53 H           9.1106    8.6727    4.2591 H       1  UNL1        0.0000
     54 C           9.7344    9.4414    6.1623 C.ar    1  UNL1        0.0000
     55 H          10.7201    9.0020    6.1087 H       1  UNL1        0.0000
     56 C           9.3688   10.1966    7.2664 C.ar    1  UNL1        0.0000
     57 H          10.0699   10.3464    8.0743 H       1  UNL1        0.0000
     58 C           8.1055   10.7587    7.3300 C.ar    1  UNL1        0.0000
     59 H           7.8185   11.3484    8.1889 H       1  UNL1        0.0000
     60 C           7.2022   10.5702    6.2966 C.ar    1  UNL1        0.0000
     61 H           6.2187   11.0098    6.3503 H       1  UNL1        0.0000
     62 N           6.0645    7.8304    4.0116 N.3     1  UNL1        0.0000
     63 SI          6.7164    6.3044    3.4912 Si      1  UNL1        0.0000
     64 C           5.5641    5.7084    2.0715 C.3     1  UNL1        0.0000
     65 H           4.7431    6.4106    1.9213 H       1  UNL1        0.0000
     66 H           5.1278    4.7411    2.3038 H       1  UNL1        0.0000
     67 H           6.0914    5.6047    1.1268 H       1  UNL1        0.0000
     68 C           6.5795    5.0746    4.9538 C.3     1  UNL1        0.0000
     69 H           5.6696    5.2138    5.5296 H       1  UNL1        0.0000
     70 H           7.4245    5.1591    5.6308 H       1  UNL1        0.0000
     71 H           6.5717    4.0577    4.5753 H       1  UNL1        0.0000
     72 C           8.5519    6.2419    2.9624 C.3     1  UNL1        0.0000
     73 H           8.7459    5.3005    2.4601 H       1  UNL1        0.0000
     74 H           9.2089    6.2879    3.8249 H       1  UNL1        0.0000
     75 H           8.8318    7.0412    2.2855 H       1  UNL1        0.0000
     76 C           4.3542   10.9523    5.0269 C.2     1  UNL1        0.0000
     77 N           3.7719    9.9306    5.6976 N.pl3   1  UNL1        0.5000
     78 C           2.9231   10.3411    6.8188 C.3     1  UNL1        0.0000
     79 H           2.4389   11.2928    6.5470 H       1  UNL1        0.0000
     80 C           1.8547    9.2755    7.0895 C.3     1  UNL1        0.0000
     81 H           2.3476    8.3192    7.3157 H       1  UNL1        0.0000
     82 H           1.2284    9.1406    6.1975 H       1  UNL1        0.0000
     83 C           0.9677    9.6742    8.2667 C.3     1  UNL1        0.0000
     84 H           0.4372   10.5968    8.0200 H       1  UNL1        0.0000
     85 H           0.2240    8.8947    8.4465 H       1  UNL1        0.0000
     86 C           1.8075    9.8977    9.5197 C.3     1  UNL1        0.0000
     87 H           2.2972    8.9612    9.7995 H       1  UNL1        0.0000
     88 H           1.1638   10.1975   10.3495 H       1  UNL1        0.0000
     89 C           2.8601   10.9710    9.2618 C.3     1  UNL1        0.0000
     90 H           3.4711   11.1183   10.1558 H       1  UNL1        0.0000
     91 H           2.3632   11.9170    9.0367 H       1  UNL1        0.0000
     92 C           3.7513   10.5868    8.0861 C.3     1  UNL1        0.0000
     93 H           4.3157    9.6807    8.3236 H       1  UNL1        0.0000
     94 H           4.4586   11.3902    7.8765 H       1  UNL1        0.0000
     95 N           4.2039   12.1709    5.4003 N.2     1  UNL1        0.5000
     96 C           4.7040   13.2857    4.6450 C.3     1  UNL1        0.0000
     97 H           4.6581   13.0855    3.5596 H       1  UNL1        0.0000
     98 C           3.8122   14.4907    4.9537 C.3     1  UNL1        0.0000
     99 H           3.8488   14.6786    6.0284 H       1  UNL1        0.0000
    100 H           2.7816   14.2441    4.6916 H       1  UNL1        0.0000
    101 C           4.2766   15.7222    4.1864 C.3     1  UNL1        0.0000
    102 H           4.1914   15.5297    3.1134 H       1  UNL1        0.0000
    103 H           3.6336   16.5728    4.4250 H       1  UNL1        0.0000
    104 C           5.7261   16.0512    4.5305 C.3     1  UNL1        0.0000
    105 H           5.7970   16.3005    5.5919 H       1  UNL1        0.0000
    106 H           6.0598   16.9208    3.9586 H       1  UNL1        0.0000
    107 C           6.6257   14.8558    4.2330 C.3     1  UNL1        0.0000
    108 H           7.6590   15.0884    4.5046 H       1  UNL1        0.0000
    109 H           6.6020   14.6448    3.1602 H       1  UNL1        0.0000
    110 C           6.1580   13.6225    4.9973 C.3     1  UNL1        0.0000
    111 H           6.7936   12.7677    4.7523 H       1  UNL1        0.0000
    112 H           6.2294   13.7979    6.0733 H       1  UNL1        0.0000
@<TRIPOS>BOND
     1    20    19    1
     2    18    17    1
     3    19    17   ar
     4    19    21   ar
     5    17    15   ar
     6    22    21    1
     7    48    47    1
     8    46    45    1
     9    21    23   ar
    10    38    35    1
    11    15    16    1
    12    15    14   ar
    13    36    35    1
    14    47    45   ar
    15    47    49   ar
    16    45    43   ar
    17    29    27    1
    18    35    37    1
    19    35    26    1
    20    30    27    1
    21    23    14   ar
    22    23    24    1
    23    13    12    1
    24    14     2    1
    25    27    28    1
    26    27    26    1
    27    11    10    1
    28    67    64    1
    29    50    49    1
    30    49    40   ar
    31    43    44    1
    32    43    41   ar
    33    12    10   ar
    34    12     3   ar
    35    10     8   ar
    36    26    25    1
    37    26    31    1
    38    65    64    1
    39    64    66    1
    40    64    63    1
    41    75    72    1
    42    41    40   ar
    43    41    42    1
    44    40    39    1
    45    73    72    1
    46     2     3    1
    47     2    25    1
    48     2     1    1
    49     3     4   ar
    50     8     9    1
    51     8     6   ar
    52    72    63    1
    53    72    74    1
    54    33    31    1
    55    34    31    1
    56   102   101    1
    57   109   107    1
    58    31    32    1
    59    63    62    1
    60    63    68    1
    61     4     6   ar
    62     4     5    1
    63    97    96    1
    64     6     7    1
    65     1    39    1
    66     1    76    1
    67    39    62    1
    68    39    51    1
    69   106   104    1
    70   101   103    1
    71   101   104    1
    72   101    98    1
    73   107   108    1
    74   107   104    1
    75   107   110    1
    76    53    52    1
    77   104   105    1
    78    71    68    1
    79    96    98    1
    80    96   110    1
    81    96    95    1
    82   100    98    1
    83   111   110    1
    84    98    99    1
    85    68    69    1
    86    68    70    1
    87   110   112    1
    88    76    95    2
    89    76    77    1
    90    52    51   ar
    91    52    54   ar
    92    51    60   ar
    93    77    78    1
    94    55    54    1
    95    54    56   ar
    96    82    80    1
    97    60    61    1
    98    60    58   ar
    99    79    78    1
   100    78    80    1
   101    78    92    1
   102    80    81    1
   103    80    83    1
   104    56    58   ar
   105    56    57    1
   106    58    59    1
   107    94    92    1
   108    84    83    1
   109    92    93    1
   110    92    89    1
   111    83    85    1
   112    83    86    1
   113    91    89    1
   114    89    86    1
   115    89    90    1
   116    86    87    1
   117    86    88    1
