@<TRIPOS>MOLECULE
2,3,5,17
 59 62 0 0 0
SMALL
GASTEIGER

@<TRIPOS>ATOM
      1 SI          0.2982    4.4237    2.5378 Si      1  UNL1        0.0000
      2 N          -2.0795    1.4401    3.0211 N.pl3   1  UNL1        0.0000
      3 N          -1.0386    3.3772    2.8478 N.3     1  UNL1        0.0000
      4 N           1.7411    3.4275    2.8565 N.pl3   1  UNL1        0.0000
      5 N           0.6315    2.8444    4.7860 N.3     1  UNL1        0.0000
      6 C          -2.7274    0.3010    2.5598 C.ar    1  UNL1        0.0000
      7 C          -2.9801   -0.7535    3.4418 C.ar    1  UNL1        0.0000
      8 H          -2.5998   -0.6979    4.4515 H       1  UNL1        0.0000
      9 C          -3.6776   -1.8667    3.0170 C.ar    1  UNL1        0.0000
     10 H          -3.8529   -2.6787    3.7074 H       1  UNL1        0.0000
     11 C          -4.1555   -1.9483    1.7188 C.ar    1  UNL1        0.0000
     12 H          -4.7017   -2.8202    1.3915 H       1  UNL1        0.0000
     13 C          -3.9380   -0.8942    0.8481 C.ar    1  UNL1        0.0000
     14 H          -4.3222   -0.9363   -0.1610 H       1  UNL1        0.0000
     15 C          -3.2374    0.2229    1.2596 C.ar    1  UNL1        0.0000
     16 H          -3.1034    1.0522    0.5805 H       1  UNL1        0.0000
     17 C          -1.3311    2.2217    2.2672 C.3     1  UNL1        0.0000
     18 C          -0.7059    1.7827    0.9955 C.ar    1  UNL1        0.0000
     19 C           0.1624    0.6946    1.0539 C.ar    1  UNL1        0.0000
     20 H           0.3135    0.1852    1.9995 H       1  UNL1        0.0000
     21 C           0.8223    0.2811   -0.0897 C.ar    1  UNL1        0.0000
     22 H           1.5013   -0.5571   -0.0427 H       1  UNL1        0.0000
     23 C           0.6092    0.9359   -1.2926 C.ar    1  UNL1        0.0000
     24 H           1.1222    0.6079   -2.1844 H       1  UNL1        0.0000
     25 C          -0.2663    2.0079   -1.3539 C.ar    1  UNL1        0.0000
     26 H          -0.4397    2.5122   -2.2935 H       1  UNL1        0.0000
     27 C          -0.9198    2.4380   -0.2117 C.ar    1  UNL1        0.0000
     28 H          -1.6107    3.2683   -0.2510 H       1  UNL1        0.0000
     29 C           0.4914    5.2437    0.8321 C.3     1  UNL1        0.0000
     30 H           0.4844    4.5551   -0.0023 H       1  UNL1        0.0000
     31 H           1.4206    5.8012    0.7964 H       1  UNL1        0.0000
     32 H          -0.3197    5.9478    0.6893 H       1  UNL1        0.0000
     33 C           0.1948    5.8268    3.8313 C.3     1  UNL1        0.0000
     34 H           0.5611    5.4883    4.7961 H       1  UNL1        0.0000
     35 H          -0.8290    6.1635    3.9627 H       1  UNL1        0.0000
     36 H           0.7894    6.6823    3.5263 H       1  UNL1        0.0000
     37 C           2.9640    3.4949    2.1660 C.ar    1  UNL1        0.0000
     38 C           3.0196    3.2143    0.8051 C.ar    1  UNL1        0.0000
     39 H           2.1203    2.9142    0.2904 H       1  UNL1        0.0000
     40 C           4.2234    3.2917    0.1296 C.ar    1  UNL1        0.0000
     41 H           4.2568    3.0682   -0.9266 H       1  UNL1        0.0000
     42 C           5.3822    3.6420    0.8020 C.ar    1  UNL1        0.0000
     43 H           6.3213    3.6970    0.2724 H       1  UNL1        0.0000
     44 C           5.3308    3.9184    2.1581 C.ar    1  UNL1        0.0000
     45 H           6.2304    4.1925    2.6889 H       1  UNL1        0.0000
     46 C           4.1298    3.8510    2.8383 C.ar    1  UNL1        0.0000
     47 H           4.0833    4.0722    3.8944 H       1  UNL1        0.0000
     48 C           1.6284    2.6999    4.0180 C.3     1  UNL1        0.0000
     49 C           2.6766    1.7101    4.3667 C.ar    1  UNL1        0.0000
     50 C           3.1969    0.8335    3.4200 C.ar    1  UNL1        0.0000
     51 H           2.8737    0.8941    2.3909 H       1  UNL1        0.0000
     52 C           4.1093   -0.1320    3.8036 C.ar    1  UNL1        0.0000
     53 H           4.5055   -0.8150    3.0667 H       1  UNL1        0.0000
     54 C           4.5099   -0.2304    5.1255 C.ar    1  UNL1        0.0000
     55 H           5.2251   -0.9849    5.4185 H       1  UNL1        0.0000
     56 C           3.9797    0.6284    6.0741 C.ar    1  UNL1        0.0000
     57 H           4.2779    0.5431    7.1087 H       1  UNL1        0.0000
     58 C           3.0591    1.5882    5.6994 C.ar    1  UNL1        0.0000
     59 H           2.6200    2.2547    6.4292 H       1  UNL1        0.0000
@<TRIPOS>BOND
     1    26    25    1
     2    24    23    1
     3    25    23   ar
     4    25    27   ar
     5    23    21   ar
     6    41    40    1
     7    28    27    1
     8    27    18   ar
     9    14    13    1
    10    21    22    1
    11    21    19   ar
    12    30    29    1
    13    40    42   ar
    14    40    38   ar
    15    43    42    1
    16    39    38    1
    17    16    15    1
    18    32    29    1
    19    31    29    1
    20    42    44   ar
    21    38    37   ar
    22    29     1    1
    23    13    15   ar
    24    13    11   ar
    25    18    19   ar
    26    18    17    1
    27    19    20    1
    28    15     6   ar
    29    12    11    1
    30    11     9   ar
    31    44    45    1
    32    44    46   ar
    33    37    46   ar
    34    37     4    1
    35    17     3    1
    36    17     2    1
    37    51    50    1
    38     1     3    1
    39     1     4    1
    40     1    33    1
    41     6     2    1
    42     6     7   ar
    43    46    47    1
    44     4    48    1
    45     9     7   ar
    46     9    10    1
    47    53    52    1
    48    50    52   ar
    49    50    49   ar
    50     7     8    1
    51    36    33    1
    52    52    54   ar
    53    33    35    1
    54    33    34    1
    55    48    49    1
    56    48     5    1
    57    49    58   ar
    58    54    55    1
    59    54    56   ar
    60    58    56   ar
    61    58    59    1
    62    56    57    1
