@<TRIPOS>MOLECULE
5,7,8,11,12,15,22,42
 110 116 0 0 0
SMALL
GASTEIGER

@<TRIPOS>ATOM
      1 SI          9.5658   19.5270   -2.6647 Si      1  UNL1        0.0000
      2 SI          8.2082   14.8903   -7.9985 Si      1  UNL1        0.0000
      3 SI          9.9500   14.9283   -3.2728 Si      1  UNL1        0.0000
      4 SI         14.2845   13.7563   -1.2626 Si      1  UNL1        0.0000
      5 O          10.6240   20.9518   -5.6499 O.2     1  UNL1        0.0000
      6 O           8.3872   19.1103   -5.2254 O.2     1  UNL1        0.0000
      7 O          11.7305   19.2770   -3.9105 O.3     1  UNL1        0.0000
      8 O          12.7066   17.7986   -5.9842 O.3     1  UNL1        0.0000
      9 C           9.3887   21.3183   -5.4558 C.2     1  UNL1        0.0000
     10 C           8.2983   20.4975   -5.2408 C.2     1  UNL1        0.0000
     11 C           9.3056   18.6095   -4.3365 C.3     1  UNL1        0.0000
     12 C           9.8504   17.3922   -4.6591 C.3     1  UNL1        0.0000
     13 C          10.7390   16.5800   -3.8117 C.2     1  UNL1        0.0000
     14 C          11.9860   16.9212   -3.4301 C.2     1  UNL1        0.0000
     15 C          12.6582   18.2834   -3.6668 C.3     1  UNL1        0.0000
     16 C          13.7174   20.7702   -4.3166 C.2     1  UNL1        0.0000
     17 H          13.8973   20.7294   -3.2574 H       1  UNL1        0.0000
     18 C          13.1993   21.8035   -5.0028 C.2     1  UNL1        0.0000
     19 H          12.8663   22.7436   -4.5980 H       1  UNL1        0.0000
     20 C          13.1877   21.4753   -6.4146 C.2     1  UNL1        0.0000
     21 H          12.8803   22.1658   -7.1849 H       1  UNL1        0.0000
     22 C          13.7122   20.2442   -6.5911 C.2     1  UNL1        0.0000
     23 H          13.9687   19.7627   -7.5212 H       1  UNL1        0.0000
     24 C          14.1192   19.6783   -5.2626 C.3     1  UNL1        0.0000
     25 H          15.2119   19.5800   -5.2430 H       1  UNL1        0.0000
     26 C           8.8881   22.7099   -5.4719 C.ar    1  UNL1        0.0000
     27 C           9.4505   23.9487   -5.6341 C.ar    1  UNL1        0.0000
     28 H          10.5121   24.0737   -5.7875 H       1  UNL1        0.0000
     29 C           8.6047   25.0760   -5.5984 C.ar    1  UNL1        0.0000
     30 H           9.0511   26.0526   -5.7240 H       1  UNL1        0.0000
     31 C           7.2466   24.9828   -5.4143 C.ar    1  UNL1        0.0000
     32 H           6.6387   25.8762   -5.3959 H       1  UNL1        0.0000
     33 C           6.6347   23.7181   -5.2520 C.ar    1  UNL1        0.0000
     34 C           5.2607   23.4225   -5.0672 C.ar    1  UNL1        0.0000
     35 H           4.5398   24.2260   -5.0324 H       1  UNL1        0.0000
     36 C           4.8545   22.1178   -4.9397 C.ar    1  UNL1        0.0000
     37 H           3.8026   21.9089   -4.8033 H       1  UNL1        0.0000
     38 C           5.7431   21.0232   -4.9777 C.ar    1  UNL1        0.0000
     39 H           5.3624   20.0186   -4.8730 H       1  UNL1        0.0000
     40 C           7.0830   21.2732   -5.1478 C.ar    1  UNL1        0.0000
     41 C           7.4925   22.6246   -5.2848 C.ar    1  UNL1        0.0000
     42 C          13.5303   18.1958   -4.9794 C.3     1  UNL1        0.0000
     43 C          14.7447   17.4237   -4.5091 C.ar    1  UNL1        0.0000
     44 C          15.7386   16.7255   -5.1316 C.ar    1  UNL1        0.0000
     45 H          15.6736   16.4643   -6.1767 H       1  UNL1        0.0000
     46 C          16.8786   16.3720   -4.3807 C.ar    1  UNL1        0.0000
     47 H          17.6651   15.8207   -4.8766 H       1  UNL1        0.0000
     48 C          17.0421   16.7416   -3.0709 C.ar    1  UNL1        0.0000
     49 H          17.9553   16.4975   -2.5474 H       1  UNL1        0.0000
     50 C          16.0203   17.4427   -2.3925 C.ar    1  UNL1        0.0000
     51 C          16.0262   17.8910   -1.0537 C.ar    1  UNL1        0.0000
     52 H          16.8890   17.6988   -0.4320 H       1  UNL1        0.0000
     53 C          14.9492   18.5730   -0.5496 C.ar    1  UNL1        0.0000
     54 H          14.9768   18.9228    0.4727 H       1  UNL1        0.0000
     55 C          13.7823   18.8190   -1.3019 C.ar    1  UNL1        0.0000
     56 H          12.9545   19.3437   -0.8501 H       1  UNL1        0.0000
     57 C          13.7379   18.3850   -2.5972 C.ar    1  UNL1        0.0000
     58 C          14.8715   17.7351   -3.1368 C.ar    1  UNL1        0.0000
     59 C          10.2948   21.2905   -2.4937 C.3     1  UNL1        0.0000
     60 H          11.0520   21.4846   -3.2459 H       1  UNL1        0.0000
     61 H          10.7563   21.4072   -1.5180 H       1  UNL1        0.0000
     62 H           9.5173   22.0440   -2.5816 H       1  UNL1        0.0000
     63 C           7.7106   19.7390   -2.1573 C.3     1  UNL1        0.0000
     64 H           7.2381   20.5927   -2.6313 H       1  UNL1        0.0000
     65 H           7.6396   19.8920   -1.0858 H       1  UNL1        0.0000
     66 H           7.1112   18.8651   -2.3969 H       1  UNL1        0.0000
     67 C          10.1571   18.3451   -1.2789 C.3     1  UNL1        0.0000
     68 H           9.5540   17.4431   -1.2545 H       1  UNL1        0.0000
     69 H          10.0227   18.8484   -0.3268 H       1  UNL1        0.0000
     70 H          11.1933   18.0464   -1.3524 H       1  UNL1        0.0000
     71 C           9.3440   16.6507   -5.7656 C.1     1  UNL1        0.0000
     72 C           8.8603   15.8953   -6.5814 C.1     1  UNL1        0.0000
     73 C           7.5278   16.0713   -9.3292 C.3     1  UNL1        0.0000
     74 H           6.7096   16.6713   -8.9414 H       1  UNL1        0.0000
     75 H           7.1546   15.5271  -10.1926 H       1  UNL1        0.0000
     76 H           8.2982   16.7543   -9.6752 H       1  UNL1        0.0000
     77 C           6.8362   13.7647   -7.2968 C.3     1  UNL1        0.0000
     78 H           7.2162   13.1236   -6.5066 H       1  UNL1        0.0000
     79 H           6.4189   13.1242   -8.0682 H       1  UNL1        0.0000
     80 H           6.0210   14.3490   -6.8807 H       1  UNL1        0.0000
     81 C           9.6380   13.8349   -8.6927 C.3     1  UNL1        0.0000
     82 H          10.4598   14.4586   -9.0315 H       1  UNL1        0.0000
     83 H           9.3111   13.2376   -9.5391 H       1  UNL1        0.0000
     84 H          10.0311   13.1527   -7.9443 H       1  UNL1        0.0000
     85 C           8.0480   15.1213   -3.3396 C.3     1  UNL1        0.0000
     86 H           7.7280   16.0269   -2.8312 H       1  UNL1        0.0000
     87 H           7.5647   14.2829   -2.8474 H       1  UNL1        0.0000
     88 H           7.6735   15.1671   -4.3554 H       1  UNL1        0.0000
     89 C          10.3357   14.5056   -1.4454 C.3     1  UNL1        0.0000
     90 H          11.0280   13.6747   -1.3833 H       1  UNL1        0.0000
     91 H           9.4298   14.2201   -0.9197 H       1  UNL1        0.0000
     92 H          10.7852   15.3332   -0.9098 H       1  UNL1        0.0000
     93 C          10.5625   13.5329   -4.4205 C.3     1  UNL1        0.0000
     94 H          10.3155   13.7418   -5.4565 H       1  UNL1        0.0000
     95 H          10.1161   12.5803   -4.1537 H       1  UNL1        0.0000
     96 H          11.6408   13.4287   -4.3468 H       1  UNL1        0.0000
     97 C          12.7571   15.9540   -2.7480 C.1     1  UNL1        0.0000
     98 C          13.4219   15.1050   -2.1959 C.1     1  UNL1        0.0000
     99 C          16.1757   13.9245   -1.4116 C.3     1  UNL1        0.0000
    100 H          16.4818   13.9886   -2.4509 H       1  UNL1        0.0000
    101 H          16.6866   13.0751   -0.9661 H       1  UNL1        0.0000
    102 H          16.5261   14.8214   -0.9115 H       1  UNL1        0.0000
    103 C          13.7322   12.0816   -1.9959 C.3     1  UNL1        0.0000
    104 H          12.6551   11.9558   -1.9401 H       1  UNL1        0.0000
    105 H          14.1879   11.2475   -1.4699 H       1  UNL1        0.0000
    106 H          14.0153   12.0035   -3.0413 H       1  UNL1        0.0000
    107 C          13.7668   13.9009    0.5689 C.3     1  UNL1        0.0000
    108 H          14.0261   14.8784    0.9647 H       1  UNL1        0.0000
    109 H          14.2599   13.1541    1.1847 H       1  UNL1        0.0000
    110 H          12.6958   13.7734    0.6902 H       1  UNL1        0.0000
@<TRIPOS>BOND
     1    75    73    1
     2    76    73    1
     3    83    81    1
     4    73    74    1
     5    73     2    1
     6    82    81    1
     7    81     2    1
     8    81    84    1
     9    79    77    1
    10     2    77    1
    11     2    72    1
    12    23    22    1
    13    77    80    1
    14    77    78    1
    15    21    20    1
    16    22    20    2
    17    22    24    1
    18    72    71    3
    19    20    18    1
    20    45    44    1
    21     8    42    1
    22    28    27    1
    23    71    12    1
    24    30    29    1
    25     5     9    1
    26    27    29   ar
    27    27    26   ar
    28    29    31   ar
    29    26     9    1
    30    26    41   ar
    31    94    93    1
    32     9    10    2
    33    31    32    1
    34    31    33   ar
    35    41    33   ar
    36    41    40   ar
    37    24    25    1
    38    24    42    1
    39    24    16    1
    40    33    34   ar
    41    10     6    1
    42    10    40    1
    43     6    11    1
    44    40    38   ar
    45    44    43   ar
    46    44    46   ar
    47    34    35    1
    48    34    36   ar
    49    18    19    1
    50    18    16    2
    51    42    43    1
    52    42    15    1
    53    38    36   ar
    54    38    39    1
    55    36    37    1
    56    47    46    1
    57    12    11    1
    58    12    13    1
    59    43    58   ar
    60    93    96    1
    61    93    95    1
    62    93     3    1
    63    46    48   ar
    64    88    85    1
    65    11     1    1
    66    16    17    1
    67     7    15    1
    68    13    14    2
    69    13     3    1
    70    15    14    1
    71    15    57    1
    72    14    97    1
    73    85     3    1
    74    85    87    1
    75    85    86    1
    76     3    89    1
    77    60    59    1
    78    58    57   ar
    79    58    50   ar
    80    48    49    1
    81    48    50   ar
    82   106   103    1
    83    97    98    3
    84     1    59    1
    85     1    63    1
    86     1    67    1
    87    64    63    1
    88    57    55   ar
    89    62    59    1
    90    59    61    1
    91   100    99    1
    92    66    63    1
    93    50    51   ar
    94    98     4    1
    95    63    65    1
    96   103   104    1
    97   103   105    1
    98   103     4    1
    99    89    90    1
   100    89    91    1
   101    89    92    1
   102    99     4    1
   103    99   101    1
   104    99   102    1
   105    70    67    1
   106    55    56    1
   107    55    53   ar
   108    67    68    1
   109    67    69    1
   110     4   107    1
   111    51    53   ar
   112    51    52    1
   113    53    54    1
   114   107   110    1
   115   107   108    1
   116   107   109    1
