@<TRIPOS>MOLECULE
5,6,7,8,19,20
 84 83 0 0 0
SMALL
GASTEIGER

@<TRIPOS>ATOM
      1 SI          4.4870    2.6873   -2.6808 Si      1  UNL1        0.0000
      2 SI          3.2579    6.9408    0.7509 Si      1  UNL1        0.0000
      3 SI          1.4981    2.3150    0.4236 Si      1  UNL1        0.0000
      4 SI          6.9792    2.3125    1.5857 Si      1  UNL1        0.0000
      5 N           3.1238    5.3677    0.0766 N.3     1  UNL1        0.0000
      6 N           5.5753    2.3473    0.5986 N.3     1  UNL1        0.0000
      7 C           3.5393    3.4535   -1.2171 C.3     1  UNL1        0.0000
      8 C           3.0426    4.7642   -1.1446 C.3     1  UNL1        0.0000
      9 C           2.4167    5.5050   -2.3367 C.3     1  UNL1        0.0000
     10 C           3.4777    6.3634   -3.0496 C.3     1  UNL1        0.0000
     11 C           1.2715    6.4275   -1.8896 C.3     1  UNL1        0.0000
     12 C           1.7524    4.5174   -3.3054 C.3     1  UNL1        0.0000
     13 C           5.0345    3.7363   -4.1989 C.3     1  UNL1        0.0000
     14 C           6.2249    2.0465   -2.1851 C.3     1  UNL1        0.0000
     15 C           3.5019    1.2062   -3.4183 C.3     1  UNL1        0.0000
     16 C           4.6879    6.8246    2.0516 C.3     1  UNL1        0.0000
     17 C           1.6935    7.4405    1.7424 C.3     1  UNL1        0.0000
     18 C           3.8313    8.4587   -0.2830 C.3     1  UNL1        0.0000
     19 C           3.3306    2.4338   -0.0819 C.3     1  UNL1        0.0000
     20 C           4.3902    1.6862    0.4541 C.3     1  UNL1        0.0000
     21 C           4.2749    0.2052    0.8474 C.3     1  UNL1        0.0000
     22 C           3.2367   -0.5121   -0.0259 C.3     1  UNL1        0.0000
     23 C           5.5851   -0.5526    0.5806 C.3     1  UNL1        0.0000
     24 C           3.9373    0.0737    2.3439 C.3     1  UNL1        0.0000
     25 C           0.9210    1.2403    1.9124 C.3     1  UNL1        0.0000
     26 C           0.4249    1.7324   -1.0652 C.3     1  UNL1        0.0000
     27 C           0.7899    3.9878    1.0373 C.3     1  UNL1        0.0000
     28 C           8.5488    1.8023    0.6082 C.3     1  UNL1        0.0000
     29 C           7.2671    4.1513    2.1202 C.3     1  UNL1        0.0000
     30 C           7.0125    1.4248    3.2923 C.3     1  UNL1        0.0000
     31 H           3.4758    7.3719   -2.6517 H       1  UNL1        0.0000
     32 H           4.4717    5.9535   -2.9108 H       1  UNL1        0.0000
     33 H           3.2668    6.4225   -4.1147 H       1  UNL1        0.0000
     34 H           0.9065    6.9749   -2.7568 H       1  UNL1        0.0000
     35 H           0.4451    5.8486   -1.4841 H       1  UNL1        0.0000
     36 H           1.5863    7.1471   -1.1454 H       1  UNL1        0.0000
     37 H           1.2758    5.0730   -4.1114 H       1  UNL1        0.0000
     38 H           2.4515    3.8193   -3.7411 H       1  UNL1        0.0000
     39 H           0.9860    3.9537   -2.7816 H       1  UNL1        0.0000
     40 H           5.4945    3.0574   -4.9118 H       1  UNL1        0.0000
     41 H           4.2477    4.2594   -4.7250 H       1  UNL1        0.0000
     42 H           5.7907    4.4628   -3.9200 H       1  UNL1        0.0000
     43 H           6.7694    1.7401   -3.0749 H       1  UNL1        0.0000
     44 H           6.7975    2.8362   -1.7049 H       1  UNL1        0.0000
     45 H           6.2002    1.2016   -1.5106 H       1  UNL1        0.0000
     46 H           4.1825    0.4075   -3.6930 H       1  UNL1        0.0000
     47 H           2.7717    0.7972   -2.7306 H       1  UNL1        0.0000
     48 H           2.9736    1.4942   -4.3210 H       1  UNL1        0.0000
     49 H           4.8552    7.8086    2.4872 H       1  UNL1        0.0000
     50 H           4.4444    6.1637    2.8855 H       1  UNL1        0.0000
     51 H           5.6373    6.5305    1.5887 H       1  UNL1        0.0000
     52 H           1.8166    8.4359    2.1549 H       1  UNL1        0.0000
     53 H           0.7948    7.4467    1.1362 H       1  UNL1        0.0000
     54 H           1.5226    6.7619    2.5715 H       1  UNL1        0.0000
     55 H           4.0951    9.2719    0.3872 H       1  UNL1        0.0000
     56 H           4.7155    8.2210   -0.8674 H       1  UNL1        0.0000
     57 H           3.0714    8.8408   -0.9558 H       1  UNL1        0.0000
     58 H           3.2127   -1.5674    0.2408 H       1  UNL1        0.0000
     59 H           2.2407   -0.1104    0.0878 H       1  UNL1        0.0000
     60 H           3.5220   -0.4317   -1.0706 H       1  UNL1        0.0000
     61 H           5.4709   -1.5784    0.9261 H       1  UNL1        0.0000
     62 H           5.8069   -0.5777   -0.4837 H       1  UNL1        0.0000
     63 H           6.4286   -0.1154    1.0985 H       1  UNL1        0.0000
     64 H           4.8455   -0.0252    2.9277 H       1  UNL1        0.0000
     65 H           3.4046    0.9465    2.7038 H       1  UNL1        0.0000
     66 H           3.3272   -0.8088    2.5206 H       1  UNL1        0.0000
     67 H          -0.1636    1.2945    1.9490 H       1  UNL1        0.0000
     68 H           1.1826    0.1917    1.8722 H       1  UNL1        0.0000
     69 H           1.2898    1.6413    2.8508 H       1  UNL1        0.0000
     70 H          -0.5216    2.2623   -1.0701 H       1  UNL1        0.0000
     71 H           0.9021    1.8980   -2.0234 H       1  UNL1        0.0000
     72 H           0.1934    0.6748   -0.9951 H       1  UNL1        0.0000
     73 H          -0.2122    3.8386    1.4314 H       1  UNL1        0.0000
     74 H           1.4033    4.3874    1.8411 H       1  UNL1        0.0000
     75 H           0.7280    4.7421    0.2650 H       1  UNL1        0.0000
     76 H           9.4130    1.8083    1.2634 H       1  UNL1        0.0000
     77 H           8.4727    0.8106    0.1770 H       1  UNL1        0.0000
     78 H           8.7482    2.4954   -0.2022 H       1  UNL1        0.0000
     79 H           8.0973    4.1967    2.8235 H       1  UNL1        0.0000
     80 H           7.5447    4.7923    1.2818 H       1  UNL1        0.0000
     81 H           6.3966    4.5615    2.6466 H       1  UNL1        0.0000
     82 H           7.8846    1.7509    3.8519 H       1  UNL1        0.0000
     83 H           6.1358    1.6789    3.8813 H       1  UNL1        0.0000
     84 H           7.0724    0.3443    3.2205 H       1  UNL1        0.0000
@<TRIPOS>BOND
     1    40    13    1
     2    41    13    1
     3    48    15    1
     4    13    42    1
     5    13     1    1
     6    33    10    1
     7    37    12    1
     8    38    12    1
     9    46    15    1
    10    15    47    1
    11    15     1    1
    12    12    39    1
    13    12     9    1
    14    43    14    1
    15    10    32    1
    16    10    31    1
    17    10     9    1
    18    34    11    1
    19     1    14    1
    20     1     7    1
    21     9    11    1
    22     9     8    1
    23    14    44    1
    24    14    45    1
    25    71    26    1
    26    11    35    1
    27    11    36    1
    28     7     8    1
    29     7    19    1
    30     8     5    1
    31    60    22    1
    32    70    26    1
    33    26    72    1
    34    26     3    1
    35    57    18    1
    36    56    18    1
    37    62    23    1
    38    18    55    1
    39    18     2    1
    40    78    28    1
    41    19     3    1
    42    19    20    1
    43    22    59    1
    44    22    58    1
    45    22    21    1
    46     5     2    1
    47    77    28    1
    48    75    27    1
    49     3    27    1
    50     3    25    1
    51    20     6    1
    52    20    21    1
    53    23    21    1
    54    23    61    1
    55    23    63    1
    56     6     4    1
    57    28    76    1
    58    28     4    1
    59     2    17    1
    60     2    16    1
    61    21    24    1
    62    27    73    1
    63    27    74    1
    64    53    17    1
    65    80    29    1
    66     4    29    1
    67     4    30    1
    68    51    16    1
    69    17    52    1
    70    17    54    1
    71    68    25    1
    72    25    67    1
    73    25    69    1
    74    16    49    1
    75    16    50    1
    76    29    81    1
    77    29    79    1
    78    24    66    1
    79    24    65    1
    80    24    64    1
    81    84    30    1
    82    30    82    1
    83    30    83    1
