@<TRIPOS>MOLECULE
2,3
 63 63 0 0 0
SMALL
GASTEIGER

@<TRIPOS>ATOM
      1 SI          4.3759    3.3535    6.3461 Si      1  UNL1        0.0000
      2 P           2.0130    1.4771    7.0890 P.3     1  UNL1        0.0000
      3 S           0.5132    2.7800    6.7487 S.3     1  UNL1        0.0000
      4 O           3.3654    2.2865    7.1587 O.3     1  UNL1        0.0000
      5 C           1.7176    0.5990    8.6786 C.ar    1  UNL1        0.0000
      6 C           1.9163   -0.8009    8.6511 C.ar    1  UNL1        0.0000
      7 C           1.0209   -1.6132    9.3313 C.ar    1  UNL1        0.0000
      8 H           1.1449   -2.6831    9.2698 H       1  UNL1        0.0000
      9 C          -0.0510   -1.1053   10.0540 C.ar    1  UNL1        0.0000
     10 C          -0.0497    0.2604   10.2774 C.ar    1  UNL1        0.0000
     11 H          -0.7727    0.6827   10.9532 H       1  UNL1        0.0000
     12 C           0.8389    1.1267    9.6487 C.ar    1  UNL1        0.0000
     13 C           3.1458   -1.4907    8.0620 C.3     1  UNL1        0.0000
     14 C           4.2000   -0.5169    7.5448 C.3     1  UNL1        0.0000
     15 H           5.1205   -1.0585    7.3328 H       1  UNL1        0.0000
     16 H           4.4172    0.2517    8.2831 H       1  UNL1        0.0000
     17 H           3.8841   -0.0440    6.6185 H       1  UNL1        0.0000
     18 C           3.8064   -2.2863    9.2059 C.3     1  UNL1        0.0000
     19 H           4.7448   -2.7144    8.8604 H       1  UNL1        0.0000
     20 H           3.1807   -3.1008    9.5579 H       1  UNL1        0.0000
     21 H           4.0170   -1.6299   10.0476 H       1  UNL1        0.0000
     22 C           2.7770   -2.4503    6.9256 C.3     1  UNL1        0.0000
     23 H           2.4001   -1.8902    6.0704 H       1  UNL1        0.0000
     24 H           2.0241   -3.1713    7.2351 H       1  UNL1        0.0000
     25 H           3.6608   -2.9990    6.6078 H       1  UNL1        0.0000
     26 C          -1.0974   -2.0451   10.6278 C.3     1  UNL1        0.0000
     27 C          -0.4309   -2.9732   11.6530 C.3     1  UNL1        0.0000
     28 H           0.3355   -3.5894   11.1905 H       1  UNL1        0.0000
     29 H          -1.1731   -3.6312   12.0997 H       1  UNL1        0.0000
     30 H           0.0340   -2.3881   12.4439 H       1  UNL1        0.0000
     31 C          -2.2384   -1.2970   11.3226 C.3     1  UNL1        0.0000
     32 H          -1.8825   -0.7645   12.2015 H       1  UNL1        0.0000
     33 H          -2.9936   -2.0090   11.6490 H       1  UNL1        0.0000
     34 H          -2.7119   -0.5905   10.6443 H       1  UNL1        0.0000
     35 C          -1.7004   -2.8779    9.4872 C.3     1  UNL1        0.0000
     36 H          -2.1651   -2.2272    8.7486 H       1  UNL1        0.0000
     37 H          -2.4608   -3.5511    9.8771 H       1  UNL1        0.0000
     38 H          -0.9444   -3.4790    8.9884 H       1  UNL1        0.0000
     39 C           0.9050    2.5436   10.2122 C.3     1  UNL1        0.0000
     40 C           2.0514    3.3729    9.6379 C.3     1  UNL1        0.0000
     41 H           1.8520    3.6813    8.6168 H       1  UNL1        0.0000
     42 H           2.9834    2.8124    9.6670 H       1  UNL1        0.0000
     43 H           2.1768    4.2762   10.2324 H       1  UNL1        0.0000
     44 C           1.1941    2.3959   11.7209 C.3     1  UNL1        0.0000
     45 H           2.1072    1.8241   11.8758 H       1  UNL1        0.0000
     46 H           0.3870    1.8977   12.2496 H       1  UNL1        0.0000
     47 H           1.3257    3.3805   12.1642 H       1  UNL1        0.0000
     48 C          -0.4147    3.3001   10.0260 C.3     1  UNL1        0.0000
     49 H          -0.3398    4.2848   10.4815 H       1  UNL1        0.0000
     50 H          -1.2451    2.7734   10.4895 H       1  UNL1        0.0000
     51 H          -0.6315    3.4272    8.9686 H       1  UNL1        0.0000
     52 C           4.9939    4.4633    7.7651 C.3     1  UNL1        0.0000
     53 H           4.1992    5.0816    8.1716 H       1  UNL1        0.0000
     54 H           5.7746    5.1238    7.4039 H       1  UNL1        0.0000
     55 H           5.4083    3.8813    8.5831 H       1  UNL1        0.0000
     56 C           3.4045    4.3329    5.0419 C.3     1  UNL1        0.0000
     57 H           3.4069    3.8264    4.0800 H       1  UNL1        0.0000
     58 H           3.8264    5.3212    4.8881 H       1  UNL1        0.0000
     59 H           2.3651    4.4574    5.3420 H       1  UNL1        0.0000
     60 C           5.7730    2.2924    5.6133 C.3     1  UNL1        0.0000
     61 H           6.2672    1.6970    6.3762 H       1  UNL1        0.0000
     62 H           6.5235    2.9257    5.1525 H       1  UNL1        0.0000
     63 H           5.4036    1.6111    4.8518 H       1  UNL1        0.0000
@<TRIPOS>BOND
     1    57    56    1
     2    63    60    1
     3    58    56    1
     4    56    59    1
     5    56     1    1
     6    62    60    1
     7    60     1    1
     8    60    61    1
     9    23    22    1
    10     1     4    1
    11     1    52    1
    12    25    22    1
    13    17    14    1
    14     3     2    1
    15    22    24    1
    16    22    13    1
    17     2     4    1
    18     2     5    1
    19    15    14    1
    20    54    52    1
    21    14    13    1
    22    14    16    1
    23    52    53    1
    24    52    55    1
    25    13     6    1
    26    13    18    1
    27    41    40    1
    28     6     5   ar
    29     6     7   ar
    30     5    12   ar
    31    36    35    1
    32    19    18    1
    33    51    48    1
    34    38    35    1
    35    18    20    1
    36    18    21    1
    37     8     7    1
    38     7     9   ar
    39    35    37    1
    40    35    26    1
    41    40    42    1
    42    40    39    1
    43    40    43    1
    44    12    39    1
    45    12    10   ar
    46    48    39    1
    47    48    49    1
    48    48    50    1
    49     9    10   ar
    50     9    26    1
    51    39    44    1
    52    10    11    1
    53    26    31    1
    54    26    27    1
    55    34    31    1
    56    28    27    1
    57    31    33    1
    58    31    32    1
    59    27    29    1
    60    27    30    1
    61    44    45    1
    62    44    47    1
    63    44    46    1
