@<TRIPOS>MOLECULE
1,2
 40 40 0 0 0
SMALL
GASTEIGER

@<TRIPOS>ATOM
      1 S           6.5629    2.8137    0.9837 S.3     1  UNL1        0.0000
      2 P           6.6929    3.3311    2.9286 P.3     1  UNL1        0.0000
      3 C           8.4563    3.6724    3.2295 C.ar    1  UNL1        0.0000
      4 C           8.9076    4.8919    3.7128 C.ar    1  UNL1        0.0000
      5 C          10.2615    5.0895    3.9213 C.ar    1  UNL1        0.0000
      6 C          11.1622    4.0732    3.6507 C.ar    1  UNL1        0.0000
      7 C          10.7112    2.8555    3.1633 C.ar    1  UNL1        0.0000
      8 C           9.3609    2.6521    2.9539 C.ar    1  UNL1        0.0000
      9 N           5.8872    4.7550    3.2961 N.3     1  UNL1        0.0000
     10 SI          5.5649    5.8867    1.9681 Si      1  UNL1        0.0000
     11 C           5.0344    7.5679    2.6830 C.3     1  UNL1        0.0000
     12 C           7.1599    6.1677    0.9675 C.3     1  UNL1        0.0000
     13 C           4.1053    5.2455    0.9181 C.3     1  UNL1        0.0000
     14 SI          5.4403    4.9320    5.0024 Si      1  UNL1        0.0000
     15 C           6.2688    6.4667    5.7741 C.3     1  UNL1        0.0000
     16 C           3.5366    5.0603    5.1119 C.3     1  UNL1        0.0000
     17 C           6.0690    3.4200    5.9625 C.3     1  UNL1        0.0000
     18 H           8.1967    5.6780    3.9158 H       1  UNL1        0.0000
     19 H          10.6140    6.0396    4.2962 H       1  UNL1        0.0000
     20 H          12.2177    4.2292    3.8176 H       1  UNL1        0.0000
     21 H          11.4129    2.0637    2.9489 H       1  UNL1        0.0000
     22 H           8.9937    1.7083    2.5679 H       1  UNL1        0.0000
     23 H           4.3377    7.4876    3.5075 H       1  UNL1        0.0000
     24 H           4.5511    8.1334    1.8952 H       1  UNL1        0.0000
     25 H           5.8840    8.1519    3.0163 H       1  UNL1        0.0000
     26 H           7.6334    5.2282    0.6993 H       1  UNL1        0.0000
     27 H           7.8861    6.7571    1.5210 H       1  UNL1        0.0000
     28 H           6.9417    6.6980    0.0459 H       1  UNL1        0.0000
     29 H           3.9398    5.9042    0.0708 H       1  UNL1        0.0000
     30 H           3.1784    5.2102    1.4857 H       1  UNL1        0.0000
     31 H           4.3029    4.2534    0.5250 H       1  UNL1        0.0000
     32 H           5.7114    6.7630    6.6563 H       1  UNL1        0.0000
     33 H           6.2972    7.3181    5.1055 H       1  UNL1        0.0000
     34 H           7.2851    6.2553    6.0926 H       1  UNL1        0.0000
     35 H           3.2565    5.6114    6.0034 H       1  UNL1        0.0000
     36 H           3.0652    4.0844    5.1785 H       1  UNL1        0.0000
     37 H           3.1101    5.5777    4.2584 H       1  UNL1        0.0000
     38 H           5.8924    3.5336    7.0279 H       1  UNL1        0.0000
     39 H           7.1391    3.2879    5.8196 H       1  UNL1        0.0000
     40 H           5.5875    2.4999    5.6399 H       1  UNL1        0.0000
@<TRIPOS>BOND
     1    28    12    1
     2    29    13    1
     3    31    13    1
     4    26    12    1
     5    13    30    1
     6    13    10    1
     7    12    27    1
     8    12    10    1
     9     1     2    1
    10    24    11    1
    11    10    11    1
    12    10     9    1
    13    22     8    1
    14    11    25    1
    15    11    23    1
    16     2     3    1
    17     2     9    1
    18    21     7    1
    19     8     7   ar
    20     8     3   ar
    21     7     6   ar
    22     3     4   ar
    23     9    14    1
    24     6    20    1
    25     6     5   ar
    26     4    18    1
    27     4     5   ar
    28     5    19    1
    29    37    16    1
    30    14    16    1
    31    14    15    1
    32    14    17    1
    33    33    15    1
    34    16    36    1
    35    16    35    1
    36    40    17    1
    37    15    34    1
    38    15    32    1
    39    39    17    1
    40    17    38    1
