@<TRIPOS>MOLECULE
1,2
 46 48 0 0 0
SMALL
GASTEIGER

@<TRIPOS>ATOM
      1 S           9.7640    5.6749    8.5038 S.3     1  UNL1        0.0000
      2 P           8.5411    3.9956   10.6837 P.3     1  UNL1        0.0000
      3 SI         10.2982    8.9205    8.6944 Si      1  UNL1        0.0000
      4 C           8.8298    5.7573   11.0182 C.ar    1  UNL1        0.0000
      5 C           9.3944    6.5023    9.9788 C.ar    1  UNL1        0.0000
      6 C           9.6045    7.8819   10.1220 C.ar    1  UNL1        0.0000
      7 C           9.2556    8.4577   11.3356 C.ar    1  UNL1        0.0000
      8 H           9.4182    9.5161   11.4743 H       1  UNL1        0.0000
      9 C           8.7040    7.7225   12.3744 C.ar    1  UNL1        0.0000
     10 H           8.4443    8.2071   13.3049 H       1  UNL1        0.0000
     11 C           8.4787    6.3684   12.2142 C.ar    1  UNL1        0.0000
     12 H           8.0312    5.7873   13.0096 H       1  UNL1        0.0000
     13 C           9.1150    8.8629    7.1974 C.3     1  UNL1        0.0000
     14 H           8.9461    7.8384    6.8853 H       1  UNL1        0.0000
     15 H           9.5235    9.4084    6.3520 H       1  UNL1        0.0000
     16 H           8.1501    9.2989    7.4392 H       1  UNL1        0.0000
     17 C          12.0499    8.3563    8.1871 C.3     1  UNL1        0.0000
     18 H          12.7194    8.3209    9.0421 H       1  UNL1        0.0000
     19 H          12.4802    9.0368    7.4580 H       1  UNL1        0.0000
     20 H          12.0206    7.3676    7.7436 H       1  UNL1        0.0000
     21 C          10.4299   10.7373    9.2640 C.3     1  UNL1        0.0000
     22 H           9.4637   11.1429    9.5457 H       1  UNL1        0.0000
     23 H          10.8185   11.3534    8.4600 H       1  UNL1        0.0000
     24 H          11.0991   10.8483   10.1110 H       1  UNL1        0.0000
     25 C           8.8254    3.4058   12.3948 C.ar    1  UNL1        0.0000
     26 C          10.1456    3.4569   12.8351 C.ar    1  UNL1        0.0000
     27 H          10.9061    3.7927   12.1429 H       1  UNL1        0.0000
     28 C          10.4783    3.1012   14.1273 C.ar    1  UNL1        0.0000
     29 H          11.5082    3.1472   14.4525 H       1  UNL1        0.0000
     30 C           9.4890    2.6946   15.0084 C.ar    1  UNL1        0.0000
     31 H           9.7434    2.4127   16.0198 H       1  UNL1        0.0000
     32 C           8.1700    2.6702   14.5908 C.ar    1  UNL1        0.0000
     33 H           7.3902    2.3774   15.2797 H       1  UNL1        0.0000
     34 C           7.8347    3.0303   13.2960 C.ar    1  UNL1        0.0000
     35 H           6.7953    3.0287   13.0019 H       1  UNL1        0.0000
     36 C           6.7141    3.9798   10.5663 C.ar    1  UNL1        0.0000
     37 C           5.9963    2.7974   10.7409 C.ar    1  UNL1        0.0000
     38 H           6.5193    1.8918   11.0174 H       1  UNL1        0.0000
     39 C           4.6235    2.7758   10.5745 C.ar    1  UNL1        0.0000
     40 H           4.0772    1.8553   10.7286 H       1  UNL1        0.0000
     41 C           3.9503    3.9287   10.2038 C.ar    1  UNL1        0.0000
     42 H           2.8783    3.9104   10.0715 H       1  UNL1        0.0000
     43 C           4.6580    5.1009    9.9984 C.ar    1  UNL1        0.0000
     44 H           4.1392    6.0005    9.6994 H       1  UNL1        0.0000
     45 C           6.0301    5.1276   10.1754 C.ar    1  UNL1        0.0000
     46 H           6.5772    6.0473   10.0157 H       1  UNL1        0.0000
@<TRIPOS>BOND
     1    15    13    1
     2    14    13    1
     3    13    16    1
     4    13     3    1
     5    19    17    1
     6    20    17    1
     7    17     3    1
     8    17    18    1
     9    23    21    1
    10     1     5    1
    11     3    21    1
    12     3     6    1
    13    21    22    1
    14    21    24    1
    15    44    43    1
    16     5     6   ar
    17     5     4   ar
    18    43    45   ar
    19    43    41   ar
    20    46    45    1
    21    42    41    1
    22     6     7   ar
    23    45    36   ar
    24    41    39   ar
    25    36     2    1
    26    36    37   ar
    27    39    40    1
    28    39    37   ar
    29     2     4    1
    30     2    25    1
    31    37    38    1
    32     4    11   ar
    33     7     8    1
    34     7     9   ar
    35    27    26    1
    36    11     9   ar
    37    11    12    1
    38     9    10    1
    39    25    26   ar
    40    25    34   ar
    41    26    28   ar
    42    35    34    1
    43    34    32   ar
    44    28    29    1
    45    28    30   ar
    46    32    30   ar
    47    32    33    1
    48    30    31    1
