@<TRIPOS>MOLECULE
1,4
 40 42 0 0 0
SMALL
GASTEIGER

@<TRIPOS>ATOM
      1 C           3.6754   19.3117   10.3634 C.3     1  UNL1       -0.0228
      2 C           2.4188   19.8707   10.9796 C.2     1  UNL1       -0.0356
      3 C           1.3377   19.0197   11.1295 C.2     1  UNL1       -0.0282
      4 C           1.5195   17.5980   10.6826 C.3     1  UNL1        0.0209
      5 C           2.4522   21.2379   11.5402 C.ar    1  UNL1       -0.0216
      6 C           2.9270   22.3150   10.7951 C.ar    1  UNL1       -0.0543
      7 C           2.9886   23.5811   11.3459 C.ar    1  UNL1       -0.0612
      8 C           2.5968   23.7916   12.6571 C.ar    1  UNL1       -0.0617
      9 C           2.1478   22.7234   13.4161 C.ar    1  UNL1       -0.0612
     10 C           2.0768   21.4582   12.8663 C.ar    1  UNL1       -0.0543
     11 C           0.0427   19.4390   11.6978 C.ar    1  UNL1       -0.0210
     12 C          -0.5057   20.7028   11.4678 C.ar    1  UNL1       -0.0543
     13 C          -1.7318   21.0466   12.0024 C.ar    1  UNL1       -0.0612
     14 C          -2.4360   20.1451   12.7837 C.ar    1  UNL1       -0.0617
     15 C          -1.8982   18.8935   13.0326 C.ar    1  UNL1       -0.0612
     16 C          -0.6747   18.5421   12.4939 C.ar    1  UNL1       -0.0543
     17 C           2.4642   16.7442   11.4603 C.ar    1  UNL1       -0.0390
     18 C           3.0223   17.1354   12.6793 C.ar    1  UNL1       -0.0580
     19 C           3.8976   16.3056   13.3588 C.ar    1  UNL1       -0.0615
     20 C           4.2207   15.0611   12.8488 C.ar    1  UNL1       -0.0617
     21 C           3.6553   14.6474   11.6510 C.ar    1  UNL1       -0.0615
     22 C           2.7896   15.4758   10.9667 C.ar    1  UNL1       -0.0580
     23 H           4.1651   18.5930   11.0420 H       1  UNL1        0.0317
     24 H           4.3966   20.1269   10.1972 H       1  UNL1        0.0317
     25 H           0.5491   17.0786   10.6088 H       1  UNL1        0.0407
     26 H           3.2273   22.1567    9.7703 H       1  UNL1        0.0624
     27 H           3.3462   24.4076   10.7488 H       1  UNL1        0.0618
     28 H           2.6459   24.7808   13.0874 H       1  UNL1        0.0618
     29 H           1.8526   22.8763   14.4439 H       1  UNL1        0.0618
     30 H           1.7296   20.6299   13.4670 H       1  UNL1        0.0624
     31 H           0.0237   21.4210   10.8603 H       1  UNL1        0.0624
     32 H          -2.1404   22.0258   11.8013 H       1  UNL1        0.0618
     33 H          -3.3955   20.4166   13.1979 H       1  UNL1        0.0618
     34 H          -2.4344   18.1859   13.6484 H       1  UNL1        0.0618
     35 H          -0.2569   17.5690   12.7097 H       1  UNL1        0.0624
     36 H           2.7618   18.0962   13.1033 H       1  UNL1        0.0620
     37 H           4.3232   16.6331   14.2968 H       1  UNL1        0.0618
     38 H           4.9033   14.4153   13.3805 H       1  UNL1        0.0618
     39 H           3.8982   13.6750   11.2480 H       1  UNL1        0.0618
     40 H           2.3608   15.1565   10.0250 H       1  UNL1        0.0620
@<TRIPOS>BOND
     1    26     6    1
     2    40    22    1
     3    24     1    1
     4     1     2    1
     5     1    23    1
     6    25     4    1
     7     4     3    1
     8     4    17    1
     9    27     7    1
    10     6     7   ar
    11     6     5   ar
    12    31    12    1
    13    22    17   ar
    14    22    21   ar
    15     2     3    2
    16     2     5    1
    17     3    11    1
    18    39    21    1
    19     7     8   ar
    20    17    18   ar
    21    12    11   ar
    22    12    13   ar
    23     5    10   ar
    24    21    20   ar
    25    11    16   ar
    26    32    13    1
    27    13    14   ar
    28    16    35    1
    29    16    15   ar
    30     8    28    1
    31     8     9   ar
    32    18    36    1
    33    18    19   ar
    34    14    15   ar
    35    14    33    1
    36    20    19   ar
    37    20    38    1
    38    10     9   ar
    39    10    30    1
    40    15    34    1
    41    19    37    1
    42     9    29    1
