@<TRIPOS>MOLECULE
1,5
 25 25 0 0 0
SMALL
GASTEIGER

@<TRIPOS>ATOM
      1 C           1.8116    0.1813    5.2018 C.3     1  UNL1        0.0231
      2 C           2.8238    0.7223    4.3101 C.2     1  UNL1       -0.0584
      3 C           3.1222   -0.2366    3.3662 C.2     1  UNL1       -0.0477
      4 C           2.3854   -1.4339    3.6780 C.2     1  UNL1       -0.0477
      5 C           1.6459   -1.2147    4.8227 C.2     1  UNL1       -0.0584
      6 C           1.6891    0.6535    6.6277 C.3     1  UNL1       -0.0510
      7 C           3.4560    2.0664    4.5053 C.3     1  UNL1       -0.0424
      8 C           4.0666   -0.1405    2.2115 C.3     1  UNL1       -0.0395
      9 C           2.4976   -2.6919    2.8782 C.3     1  UNL1       -0.0395
     10 C           0.8504   -2.2055    5.6176 C.3     1  UNL1       -0.0424
     11 H           2.5565    0.3208    7.2045 H       1  UNL1        0.0242
     12 H           0.7976    0.2476    7.0983 H       1  UNL1        0.0242
     13 H           1.6490    1.7420    6.6768 H       1  UNL1        0.0242
     14 H           2.7258    2.8735    4.4148 H       1  UNL1        0.0275
     15 H           4.2452    2.2323    3.7763 H       1  UNL1        0.0275
     16 H           3.9043    2.1240    5.4991 H       1  UNL1        0.0275
     17 H           4.5715    0.8226    2.1886 H       1  UNL1        0.0278
     18 H           4.8234   -0.9235    2.2762 H       1  UNL1        0.0278
     19 H           3.5383   -0.2716    1.2652 H       1  UNL1        0.0278
     20 H           3.4849   -3.1396    3.0090 H       1  UNL1        0.0278
     21 H           1.7502   -3.4224    3.1799 H       1  UNL1        0.0278
     22 H           2.3676   -2.4852    1.8155 H       1  UNL1        0.0278
     23 H           1.3747   -2.4487    6.5445 H       1  UNL1        0.0275
     24 H           0.7056   -3.1310    5.0639 H       1  UNL1        0.0275
     25 H          -0.1296   -1.8031    5.8799 H       1  UNL1        0.0275
@<TRIPOS>BOND
     1    19     8    1
     2    22     9    1
     3    17     8    1
     4     8    18    1
     5     8     3    1
     6     9    20    1
     7     9    21    1
     8     9     4    1
     9     3     4    1
    10     3     2    2
    11     4     5    2
    12    15     7    1
    13     2     7    1
    14     2     1    1
    15    14     7    1
    16     7    16    1
    17     5     1    1
    18     5    10    1
    19    24    10    1
    20     1     6    1
    21    10    25    1
    22    10    23    1
    23     6    13    1
    24     6    12    1
    25     6    11    1
