@<TRIPOS>MOLECULE
3,4
 4 3 0 0 0
SMALL
GASTEIGER

@<TRIPOS>ATOM
      1 O          -1.1730    1.5589   15.1268 O.2     1  UNL1       -0.2794
      2 O           1.6653    1.6163   16.1003 O.2     1  UNL1       -0.2794
      3 C          -0.4943    2.4653   14.8691 C.2     1  UNL1        0.2794
      4 C           1.2555    2.5010   15.4695 C.2     1  UNL1        0.2794
@<TRIPOS>BOND
     1     3     1    2
     2     3     4    1
     3     4     2    2
