@<TRIPOS>MOLECULE
2,6
 34 34 0 0 0
SMALL
GASTEIGER

@<TRIPOS>ATOM
      1 SI          3.9827    4.0807   15.3681 Si      1  UNL1        0.0000
      2 C           2.1701    3.6776   15.0876 C.3     1  UNL1        0.0000
      3 C           1.6248    2.8850   14.0076 C.2     1  UNL1        0.0000
      4 C           0.4303    2.3075   14.4291 C.2     1  UNL1        0.0000
      5 C           0.1918    2.6850   15.7757 C.2     1  UNL1        0.0000
      6 C           1.2348    3.5075   16.1967 C.2     1  UNL1        0.0000
      7 C           2.2986    2.6044   12.6957 C.3     1  UNL1        0.0000
      8 H           3.0431    1.8139   12.8134 H       1  UNL1        0.0000
      9 H           2.8047    3.4854   12.3048 H       1  UNL1        0.0000
     10 H           1.5742    2.2610   11.9589 H       1  UNL1        0.0000
     11 C          -0.4428    1.4009   13.6144 C.3     1  UNL1        0.0000
     12 H           0.0471    0.4397   13.4471 H       1  UNL1        0.0000
     13 H          -0.6645    1.8374   12.6396 H       1  UNL1        0.0000
     14 H          -1.3839    1.2153   14.1257 H       1  UNL1        0.0000
     15 C          -0.9763    2.2339   16.6017 C.3     1  UNL1        0.0000
     16 H          -0.9940    1.1459   16.6772 H       1  UNL1        0.0000
     17 H          -1.9220    2.5537   16.1592 H       1  UNL1        0.0000
     18 H          -0.9170    2.6406   17.6084 H       1  UNL1        0.0000
     19 C           1.4838    3.9349   17.6187 C.3     1  UNL1        0.0000
     20 H           0.5990    4.3832   18.0735 H       1  UNL1        0.0000
     21 H           2.3001    4.6503   17.6761 H       1  UNL1        0.0000
     22 H           1.7578    3.0668   18.2232 H       1  UNL1        0.0000
     23 C           4.8041    2.8243   16.5586 C.3     1  UNL1        0.0000
     24 H           5.8514    3.0597   16.7230 H       1  UNL1        0.0000
     25 H           4.7504    1.8173   16.1570 H       1  UNL1        0.0000
     26 H           4.3126    2.8129   17.5254 H       1  UNL1        0.0000
     27 C           5.0857    4.0856   13.8018 C.3     1  UNL1        0.0000
     28 H           6.0888    4.4128   14.0588 H       1  UNL1        0.0000
     29 H           4.7095    4.7533   13.0349 H       1  UNL1        0.0000
     30 H           5.1681    3.0955   13.3692 H       1  UNL1        0.0000
     31 C           4.1884    5.8395   16.1390 C.3     1  UNL1        0.0000
     32 H           3.2779    6.4355   16.0546 H       1  UNL1        0.0000
     33 H           4.9902    6.3907   15.6562 H       1  UNL1        0.0000
     34 H           4.4409    5.7764   17.1934 H       1  UNL1        0.0000
@<TRIPOS>BOND
     1    10     7    1
     2     9     7    1
     3    13    11    1
     4     7     8    1
     5     7     3    1
     6    29    27    1
     7    30    27    1
     8    12    11    1
     9    11    14    1
    10    11     4    1
    11    27    28    1
    12    27     1    1
    13     3     4    2
    14     3     2    1
    15     4     5    1
    16     2     1    1
    17     2     6    1
    18     1    31    1
    19     1    23    1
    20    33    31    1
    21     5     6    2
    22     5    15    1
    23    32    31    1
    24    31    34    1
    25    25    23    1
    26    17    15    1
    27     6    19    1
    28    23    24    1
    29    23    26    1
    30    15    16    1
    31    15    18    1
    32    19    21    1
    33    19    20    1
    34    19    22    1
