@<TRIPOS>MOLECULE
3,4
 56 58 0 0 0
SMALL
GASTEIGER

@<TRIPOS>ATOM
      1 SI          8.0192    0.6559   12.3726 Si      1  UNL1        0.0000
      2 N           9.0322    0.1107   13.6817 N.2     1  UNL1        0.0000
      3 C           5.9879    2.0987   16.9635 C.2     1  UNL1        0.0000
      4 C           6.8305    1.8900   16.0009 C.1     1  UNL1        0.0000
      5 C           7.4002    1.3773   14.8461 C.2     1  UNL1        0.0000
      6 C           8.5922    0.4970   14.8183 C.2     1  UNL1        0.0000
      7 C           6.9728    1.6849   13.5438 C.3     1  UNL1        0.0000
      8 C           9.3059    0.0060   16.0617 C.3     1  UNL1        0.0000
      9 C           8.3148   -0.5923   17.0642 C.3     1  UNL1        0.0000
     10 H           8.8571   -1.0213   17.9054 H       1  UNL1        0.0000
     11 H           7.7396   -1.3852   16.5912 H       1  UNL1        0.0000
     12 H           7.6283    0.1626   17.4401 H       1  UNL1        0.0000
     13 C          10.0531    1.1837   16.6956 C.3     1  UNL1        0.0000
     14 H          10.8416    1.5246   16.0282 H       1  UNL1        0.0000
     15 H          10.5074    0.8770   17.6364 H       1  UNL1        0.0000
     16 H           9.3644    2.0097   16.8815 H       1  UNL1        0.0000
     17 C          10.3212   -1.0736   15.6741 C.3     1  UNL1        0.0000
     18 H          11.0199   -0.6875   14.9384 H       1  UNL1        0.0000
     19 H           9.8123   -1.9258   15.2336 H       1  UNL1        0.0000
     20 H          10.8708   -1.4026   16.5539 H       1  UNL1        0.0000
     21 C           9.0279    1.3547   10.9153 C.3     1  UNL1        0.0000
     22 H           9.7231    0.5946   10.5753 H       1  UNL1        0.0000
     23 H           9.5998    2.2439   11.1475 H       1  UNL1        0.0000
     24 H           8.3656    1.5846   10.0876 H       1  UNL1        0.0000
     25 C           7.0038   -0.7936   11.6603 C.3     1  UNL1        0.0000
     26 H           7.6455   -1.4990   11.1435 H       1  UNL1        0.0000
     27 H           6.2701   -0.4242   10.9513 H       1  UNL1        0.0000
     28 H           6.4736   -1.3285   12.4410 H       1  UNL1        0.0000
     29 C           5.7672    2.3727   13.1768 C.ar    1  UNL1        0.0000
     30 C           5.6959    3.0458   11.9469 C.ar    1  UNL1        0.0000
     31 H           6.5668    3.0565   11.3062 H       1  UNL1        0.0000
     32 C           4.5475    3.6906   11.5427 C.ar    1  UNL1        0.0000
     33 H           4.5332    4.2109   10.5940 H       1  UNL1        0.0000
     34 C           3.4017    3.6759   12.3306 C.ar    1  UNL1        0.0000
     35 C           3.4470    2.9735   13.5299 C.ar    1  UNL1        0.0000
     36 H           2.5539    2.9122   14.1384 H       1  UNL1        0.0000
     37 C           4.5980    2.3418   13.9523 C.ar    1  UNL1        0.0000
     38 H           4.5836    1.7666   14.8648 H       1  UNL1        0.0000
     39 C           2.1561    4.3942   11.9072 C.3     1  UNL1        0.0000
     40 H           1.2701    3.8169   12.1658 H       1  UNL1        0.0000
     41 H           2.1567    4.5758   10.8347 H       1  UNL1        0.0000
     42 H           2.0869    5.3577   12.4151 H       1  UNL1        0.0000
     43 C           4.8580    1.3838   17.5289 C.ar    1  UNL1        0.0000
     44 C           4.6167    0.0382   17.2307 C.ar    1  UNL1        0.0000
     45 H           5.2865   -0.4775   16.5581 H       1  UNL1        0.0000
     46 C           3.5339   -0.6178   17.7780 C.ar    1  UNL1        0.0000
     47 H           3.3621   -1.6579   17.5381 H       1  UNL1        0.0000
     48 C           2.6511    0.0376   18.6311 C.ar    1  UNL1        0.0000
     49 C           2.8811    1.3780   18.9175 C.ar    1  UNL1        0.0000
     50 H           2.2001    1.9053   19.5715 H       1  UNL1        0.0000
     51 C           3.9663    2.0434   18.3809 C.ar    1  UNL1        0.0000
     52 H           4.1324    3.0948   18.6086 H       1  UNL1        0.0000
     53 C           1.4733   -0.6889   19.2059 C.3     1  UNL1        0.0000
     54 H           1.7802   -1.6454   19.6260 H       1  UNL1        0.0000
     55 H           0.7378   -0.8894   18.4264 H       1  UNL1        0.0000
     56 H           0.9945   -0.1012   19.9853 H       1  UNL1        0.0000
@<TRIPOS>BOND
     1    24    21    1
     2    22    21    1
     3    33    32    1
     4    41    39    1
     5    21    23    1
     6    21     1    1
     7    27    25    1
     8    26    25    1
     9    31    30    1
    10    32    30   ar
    11    32    34   ar
    12    25     1    1
    13    25    28    1
    14    39    40    1
    15    39    34    1
    16    39    42    1
    17    30    29   ar
    18    34    35   ar
    19     1     7    1
    20     1     2    1
    21    29     7    1
    22    29    37   ar
    23    35    37   ar
    24    35    36    1
    25     7     5    1
    26     2     6    2
    27    37    38    1
    28     6     5    1
    29     6     8    1
    30     5     4    2
    31    18    17    1
    32    19    17    1
    33    17     8    1
    34    17    20    1
    35     4     3    2
    36    14    13    1
    37     8    13    1
    38     8     9    1
    39    45    44    1
    40    11     9    1
    41    13    16    1
    42    13    15    1
    43     3    43    1
    44     9    12    1
    45     9    10    1
    46    44    43   ar
    47    44    46   ar
    48    43    51   ar
    49    47    46    1
    50    46    48   ar
    51    51    52    1
    52    51    49   ar
    53    55    53    1
    54    48    49   ar
    55    48    53    1
    56    49    50    1
    57    53    54    1
    58    53    56    1
