@<TRIPOS>MOLECULE
3,6
 72 74 0 0 0
SMALL
GASTEIGER

@<TRIPOS>ATOM
      1 SI          3.2658    1.8295   14.9412 Si      1  UNL1        0.0000
      2 N           1.9926    2.6391   14.0824 N.2     1  UNL1        0.0000
      3 C          -0.7803   -1.0859   14.2393 C.2     1  UNL1        0.0000
      4 C           0.3178   -0.6583   13.5624 C.2     1  UNL1        0.0000
      5 C           0.6485   -1.3015   12.2579 C.2     1  UNL1        0.0000
      6 C          -0.0754   -2.3830   11.8865 C.2     1  UNL1        0.0000
      7 C           1.2535    0.3888   14.0265 C.2     1  UNL1        0.0000
      8 C           2.3988    0.1457   14.7207 C.2     1  UNL1        0.0000
      9 C           1.0665    1.8312   13.7256 C.2     1  UNL1        0.0000
     10 C           0.1996   -3.0753   10.5629 C.3     1  UNL1        0.0000
     11 H          -0.3420   -2.5429    9.7666 H       1  UNL1        0.0000
     12 H           1.2627   -3.0471   10.3033 H       1  UNL1        0.0000
     13 C          -0.2443   -4.5414   10.5672 C.3     1  UNL1        0.0000
     14 H           0.3653   -5.1174   11.2635 H       1  UNL1        0.0000
     15 H          -0.1226   -4.9773    9.5759 H       1  UNL1        0.0000
     16 H          -1.2964   -4.6300   10.8581 H       1  UNL1        0.0000
     17 C           1.7876   -0.7059   11.4459 C.3     1  UNL1        0.0000
     18 H           1.5320   -0.7590   10.3841 H       1  UNL1        0.0000
     19 H           1.9104    0.3476   11.7041 H       1  UNL1        0.0000
     20 C           3.1275   -1.4094   11.6772 C.3     1  UNL1        0.0000
     21 H           3.4923   -1.2114   12.6809 H       1  UNL1        0.0000
     22 H           3.8683   -1.0484   10.9655 H       1  UNL1        0.0000
     23 H           3.0328   -2.4867   11.5606 H       1  UNL1        0.0000
     24 C          -1.1494   -0.6936   15.5981 C.ar    1  UNL1        0.0000
     25 C          -2.5079   -0.5380   15.9296 C.ar    1  UNL1        0.0000
     26 H          -3.2611   -0.6440   15.1532 H       1  UNL1        0.0000
     27 C          -2.9070   -0.2255   17.2122 C.ar    1  UNL1        0.0000
     28 H          -3.9592   -0.0978   17.4295 H       1  UNL1        0.0000
     29 C          -1.9788   -0.0805   18.2385 C.ar    1  UNL1        0.0000
     30 C          -0.6377   -0.2621   17.9295 C.ar    1  UNL1        0.0000
     31 H           0.1044   -0.1714   18.7111 H       1  UNL1        0.0000
     32 C          -0.2277   -0.5584   16.6443 C.ar    1  UNL1        0.0000
     33 H           0.8211   -0.7102   16.4516 H       1  UNL1        0.0000
     34 C          -2.4228    0.2692   19.6264 C.3     1  UNL1        0.0000
     35 H          -3.3115   -0.2957   19.9026 H       1  UNL1        0.0000
     36 H          -2.6707    1.3298   19.6853 H       1  UNL1        0.0000
     37 H          -1.6368    0.0633   20.3490 H       1  UNL1        0.0000
     38 C          -0.1729    2.4341   13.0947 C.3     1  UNL1        0.0000
     39 C           0.1052    3.9022   12.7528 C.3     1  UNL1        0.0000
     40 H           0.9227    3.9753   12.0409 H       1  UNL1        0.0000
     41 H           0.3899    4.4489   13.6459 H       1  UNL1        0.0000
     42 H          -0.7829    4.3586   12.3208 H       1  UNL1        0.0000
     43 C          -0.6323    1.7206   11.8210 C.3     1  UNL1        0.0000
     44 H           0.1361    1.7766   11.0536 H       1  UNL1        0.0000
     45 H          -1.5265    2.2123   11.4406 H       1  UNL1        0.0000
     46 H          -0.8680    0.6760   12.0118 H       1  UNL1        0.0000
     47 C          -1.2914    2.3764   14.1443 C.3     1  UNL1        0.0000
     48 H          -2.1645    2.9159   13.7816 H       1  UNL1        0.0000
     49 H          -0.9616    2.8353   15.0736 H       1  UNL1        0.0000
     50 H          -1.5733    1.3482   14.3488 H       1  UNL1        0.0000
     51 C           3.3651    2.5013   16.7179 C.3     1  UNL1        0.0000
     52 H           3.3223    3.5845   16.7004 H       1  UNL1        0.0000
     53 H           4.2931    2.2141   17.2002 H       1  UNL1        0.0000
     54 H           2.5401    2.1442   17.3250 H       1  UNL1        0.0000
     55 C           4.9341    1.9368   14.0367 C.3     1  UNL1        0.0000
     56 H           4.8647    1.5441   13.0281 H       1  UNL1        0.0000
     57 H           5.7023    1.3798   14.5621 H       1  UNL1        0.0000
     58 H           5.2546    2.9705   13.9723 H       1  UNL1        0.0000
     59 C           2.9066   -1.1191   15.2232 C.ar    1  UNL1        0.0000
     60 C           2.3916   -2.3798   14.8903 C.ar    1  UNL1        0.0000
     61 H           1.5663   -2.4678   14.1992 H       1  UNL1        0.0000
     62 C           2.9327   -3.5310   15.4255 C.ar    1  UNL1        0.0000
     63 H           2.5138   -4.4890   15.1497 H       1  UNL1        0.0000
     64 C           4.0022   -3.4905   16.3131 C.ar    1  UNL1        0.0000
     65 C           4.5204   -2.2461   16.6461 C.ar    1  UNL1        0.0000
     66 H           5.3537   -2.1808   17.3321 H       1  UNL1        0.0000
     67 C           3.9869   -1.0914   16.1120 C.ar    1  UNL1        0.0000
     68 H           4.4082   -0.1386   16.3936 H       1  UNL1        0.0000
     69 C           4.5618   -4.7538   16.8914 C.3     1  UNL1        0.0000
     70 H           5.4778   -4.5581   17.4434 H       1  UNL1        0.0000
     71 H           4.7741   -5.4745   16.1031 H       1  UNL1        0.0000
     72 H           3.8401   -5.2083   17.5705 H       1  UNL1        0.0000
@<TRIPOS>BOND
     1    15    13    1
     2    11    10    1
     3    12    10    1
     4    18    17    1
     5    10    13    1
     6    10     6    1
     7    13    16    1
     8    13    14    1
     9    22    20    1
    10    44    43    1
    11    45    43    1
    12    17    20    1
    13    17    19    1
    14    17     5    1
    15    23    20    1
    16    20    21    1
    17    43    46    1
    18    43    38    1
    19     6     5    2
    20    40    39    1
    21     5     4    1
    22    42    39    1
    23    39    38    1
    24    39    41    1
    25    56    55    1
    26    38     9    1
    27    38    47    1
    28     4     7    1
    29     4     3    2
    30     9     7    1
    31     9     2    2
    32    48    47    1
    33    58    55    1
    34     7     8    2
    35    55    57    1
    36    55     1    1
    37     2     1    1
    38    47    50    1
    39    47    49    1
    40    61    60    1
    41     3    24    1
    42     8     1    1
    43     8    59    1
    44    60    59   ar
    45    60    62   ar
    46     1    51    1
    47    63    62    1
    48    26    25    1
    49    59    67   ar
    50    62    64   ar
    51    24    25   ar
    52    24    32   ar
    53    25    27   ar
    54    71    69    1
    55    67    68    1
    56    67    65   ar
    57    64    65   ar
    58    64    69    1
    59    33    32    1
    60    32    30   ar
    61    65    66    1
    62    52    51    1
    63    51    53    1
    64    51    54    1
    65    69    70    1
    66    69    72    1
    67    27    28    1
    68    27    29   ar
    69    30    29   ar
    70    30    31    1
    71    29    34    1
    72    34    36    1
    73    34    35    1
    74    34    37    1
