@<TRIPOS>MOLECULE
2,5
 22 21 0 0 0
SMALL
GASTEIGER

@<TRIPOS>ATOM
      1 SI          1.8620    2.8870   -0.9619 Si      1  UNL1        0.0000
      2 C           4.0474    4.0628    1.6031 C.3     1  UNL1        0.0000
      3 H           4.0384    5.0998    1.2720 H       1  UNL1        0.0000
      4 H           4.9473    3.5336    1.3135 H       1  UNL1        0.0000
      5 C           2.8328    3.3983    1.6115 C.2     1  UNL1        0.0000
      6 C           1.8143    2.9016    0.9737 C.2     1  UNL1        0.0000
      7 C           0.5682    2.3430    1.5927 C.3     1  UNL1        0.0000
      8 H           0.5040    2.5740    2.6534 H       1  UNL1        0.0000
      9 H           0.5431    1.2627    1.4634 H       1  UNL1        0.0000
     10 H          -0.3044    2.7558    1.0917 H       1  UNL1        0.0000
     11 C           3.6681    2.9945   -1.5469 C.3     1  UNL1        0.0000
     12 H           4.1192    3.9469   -1.2908 H       1  UNL1        0.0000
     13 H           3.7192    2.8911   -2.6257 H       1  UNL1        0.0000
     14 H           4.2789    2.2086   -1.1142 H       1  UNL1        0.0000
     15 C           0.8499    4.3938   -1.5406 C.3     1  UNL1        0.0000
     16 H          -0.1798    4.3463   -1.1986 H       1  UNL1        0.0000
     17 H           0.8277    4.4483   -2.6244 H       1  UNL1        0.0000
     18 H           1.2753    5.3243   -1.1762 H       1  UNL1        0.0000
     19 C           1.0738    1.2475   -1.5239 C.3     1  UNL1        0.0000
     20 H           1.5922    0.3876   -1.1100 H       1  UNL1        0.0000
     21 H           1.1150    1.1613   -2.6049 H       1  UNL1        0.0000
     22 H           0.0300    1.1778   -1.2348 H       1  UNL1        0.0000
@<TRIPOS>BOND
     1    13    11    1
     2    17    15    1
     3    21    19    1
     4    11    12    1
     5    11    14    1
     6    11     1    1
     7    15    16    1
     8    15    18    1
     9    15     1    1
    10    19    22    1
    11    19    20    1
    12    19     1    1
    13     1     6    1
    14     6     7    1
    15     6     5    2
    16    10     7    1
    17     3     2    1
    18     4     2    1
    19     9     7    1
    20     7     8    1
    21     2     5    1
