@<TRIPOS>MOLECULE
3,14
 48 50 0 0 0
SMALL
GASTEIGER

@<TRIPOS>ATOM
      1 P          -1.4762    5.5303    1.2718 P.3     1  UNL1        0.0000
      2 SI         -0.9239    2.3834    1.8071 Si      1  UNL1        0.0000
      3 C          -0.1127    3.7161    2.8564 C.2     1  UNL1        0.0000
      4 C          -0.3762    5.0299    2.6745 C.2     1  UNL1        0.0000
      5 C           0.2884    6.0396    3.5374 C.ar    1  UNL1        0.0000
      6 C           0.0115    7.4045    3.4950 C.ar    1  UNL1        0.0000
      7 H          -0.7502    7.7934    2.8358 H       1  UNL1        0.0000
      8 C           0.6989    8.2882    4.3085 C.ar    1  UNL1        0.0000
      9 H           0.4752    9.3445    4.2598 H       1  UNL1        0.0000
     10 C           1.6679    7.8221    5.1780 C.ar    1  UNL1        0.0000
     11 H           2.2121    8.5145    5.8061 H       1  UNL1        0.0000
     12 C           1.9265    6.4575    5.2476 C.ar    1  UNL1        0.0000
     13 H           2.6824    6.1095    5.9562 H       1  UNL1        0.0000
     14 C           1.2537    5.5366    4.4478 C.ar    1  UNL1        0.0000
     15 C          -0.1203    0.7326    2.3998 C.3     1  UNL1        0.0000
     16 H           0.3199    0.8248    3.3970 H       1  UNL1        0.0000
     17 H           0.6596    0.4128    1.7148 H       1  UNL1        0.0000
     18 H          -0.8552   -0.0655    2.4343 H       1  UNL1        0.0000
     19 C          -2.8104    2.2905    2.1358 C.3     1  UNL1        0.0000
     20 H          -3.0227    2.1888    3.1961 H       1  UNL1        0.0000
     21 H          -3.2652    1.4502    1.6217 H       1  UNL1        0.0000
     22 H          -3.2989    3.1970    1.7923 H       1  UNL1        0.0000
     23 C          -0.6282    2.4429   -0.0875 C.3     1  UNL1        0.0000
     24 H          -0.8978    1.4988   -0.5509 H       1  UNL1        0.0000
     25 H           0.4148    2.6376   -0.3197 H       1  UNL1        0.0000
     26 H          -1.2163    3.2250   -0.5544 H       1  UNL1        0.0000
     27 C          -0.4087    6.8485    0.5689 C.ar    1  UNL1        0.0000
     28 C          -0.8402    8.1055    0.1628 C.ar    1  UNL1        0.0000
     29 H          -1.8631    8.4107    0.3301 H       1  UNL1        0.0000
     30 C           0.0461    8.9888   -0.4275 C.ar    1  UNL1        0.0000
     31 H          -0.2970    9.9687   -0.7282 H       1  UNL1        0.0000
     32 C           1.3662    8.6259   -0.6318 C.ar    1  UNL1        0.0000
     33 H           2.0545    9.3198   -1.0916 H       1  UNL1        0.0000
     34 C           1.8002    7.3686   -0.2427 C.ar    1  UNL1        0.0000
     35 H           2.8296    7.0793   -0.4004 H       1  UNL1        0.0000
     36 C           0.9184    6.4843    0.3457 C.ar    1  UNL1        0.0000
     37 H           1.2545    5.5015    0.6565 H       1  UNL1        0.0000
     38 C          -2.8285    6.4280    2.1210 C.ar    1  UNL1        0.0000
     39 C          -3.0242    6.3296    3.4955 C.ar    1  UNL1        0.0000
     40 H          -2.3074    5.7892    4.0997 H       1  UNL1        0.0000
     41 C          -4.1235    6.9228    4.0876 C.ar    1  UNL1        0.0000
     42 H          -4.2599    6.8521    5.1574 H       1  UNL1        0.0000
     43 C          -5.0502    7.6050    3.3163 C.ar    1  UNL1        0.0000
     44 H          -5.9046    8.0733    3.7826 H       1  UNL1        0.0000
     45 C          -4.8889    7.6661    1.9419 C.ar    1  UNL1        0.0000
     46 H          -5.6240    8.1728    1.3327 H       1  UNL1        0.0000
     47 C          -3.7951    7.0659    1.3464 C.ar    1  UNL1        0.0000
     48 H          -3.6919    7.0775    0.2691 H       1  UNL1        0.0000
@<TRIPOS>BOND
     1    33    32    1
     2    31    30    1
     3    32    30   ar
     4    32    34   ar
     5    26    23    1
     6    24    23    1
     7    30    28   ar
     8    35    34    1
     9    25    23    1
    10    34    36   ar
    11    23     2    1
    12    28    29    1
    13    28    27   ar
    14    48    47    1
    15    36    27   ar
    16    36    37    1
    17    27     1    1
    18     1    38    1
    19     1     4    1
    20    46    45    1
    21    47    45   ar
    22    47    38   ar
    23    21    19    1
    24    17    15    1
    25    22    19    1
    26     2    19    1
    27     2    15    1
    28     2     3    1
    29    45    43   ar
    30    38    39   ar
    31    19    20    1
    32    15    18    1
    33    15    16    1
    34     4     3    2
    35     4     5    1
    36     7     6    1
    37    43    44    1
    38    43    41   ar
    39     6     5   ar
    40     6     8   ar
    41    39    41   ar
    42    39    40    1
    43     5    14   ar
    44    41    42    1
    45     9     8    1
    46     8    10   ar
    47    14    12   ar
    48    10    12   ar
    49    10    11    1
    50    12    13    1
