@<TRIPOS>MOLECULE
2,3
 17 16 0 0 0
SMALL
GASTEIGER

@<TRIPOS>ATOM
      1 SI          4.5539   -2.6099    1.5753 Si      1  UNL1        0.0000
      2 C           3.5063    0.0638    2.0281 C.3     1  UNL1        0.0000
      3 C           3.6282   -1.2698    2.4935 C.3     1  UNL1        0.0000
      4 C           6.3855   -2.0721    1.4154 C.3     1  UNL1        0.0000
      5 C           4.4833   -4.3547    2.3543 C.3     1  UNL1        0.0000
      6 C           3.8007   -2.7525   -0.1786 C.3     1  UNL1        0.0000
      7 H           6.9897   -2.8592    0.9742 H       1  UNL1        0.0000
      8 H           6.8131   -1.8252    2.3824 H       1  UNL1        0.0000
      9 H           6.4755   -1.1934    0.7844 H       1  UNL1        0.0000
     10 H           5.0143   -4.4015    3.2991 H       1  UNL1        0.0000
     11 H           4.9418   -5.0814    1.6898 H       1  UNL1        0.0000
     12 H           3.4606   -4.6756    2.5294 H       1  UNL1        0.0000
     13 H           4.3721   -3.4377   -0.7973 H       1  UNL1        0.0000
     14 H           3.7898   -1.7881   -0.6760 H       1  UNL1        0.0000
     15 H           2.7780   -3.1154   -0.1430 H       1  UNL1        0.0000
     16 H           2.7213    0.2618    1.2972 H       1  UNL1        0.0000
     17 H           4.4357    0.5558    1.7314 H       1  UNL1        0.0000
@<TRIPOS>BOND
     1    13     6    1
     2    14     6    1
     3     6    15    1
     4     6     1    1
     5     9     4    1
     6     7     4    1
     7    16     2    1
     8     4     1    1
     9     4     8    1
    10     1     5    1
    11     1     3    1
    12    11     5    1
    13    17     2    1
    14     2     3    1
    15     5    12    1
    16     5    10    1
