@<TRIPOS>MOLECULE
3,4
 28 27 0 0 0
SMALL
GASTEIGER

@<TRIPOS>ATOM
      1 SI          8.1011   -1.7684    1.9687 Si      1  UNL1        0.0000
      2 SI         10.4767   -3.4193    5.0455 Si      1  UNL1        0.0000
      3 C           9.0959   -1.2612    3.4740 C.2     1  UNL1        0.0000
      4 C           9.8206   -1.7709    4.4369 C.2     1  UNL1        0.0000
      5 C          11.9467   -3.0348    6.2097 C.3     1  UNL1        0.0000
      6 C           9.0747   -4.2624    6.0374 C.3     1  UNL1        0.0000
      7 C          11.0877   -4.5564    3.6342 C.3     1  UNL1        0.0000
      8 C           9.0578   -1.2652    0.3900 C.3     1  UNL1        0.0000
      9 C           6.4645   -0.7795    2.1187 C.3     1  UNL1        0.0000
     10 C           7.7029   -3.6369    1.8814 C.3     1  UNL1        0.0000
     11 H          12.8399   -2.7885    5.6429 H       1  UNL1        0.0000
     12 H          12.1892   -3.8750    6.8537 H       1  UNL1        0.0000
     13 H          11.7118   -2.1828    6.8436 H       1  UNL1        0.0000
     14 H           8.6206   -3.5569    6.7285 H       1  UNL1        0.0000
     15 H           9.4402   -5.1071    6.6136 H       1  UNL1        0.0000
     16 H           8.2911   -4.6271    5.3805 H       1  UNL1        0.0000
     17 H          10.2586   -4.9594    3.0626 H       1  UNL1        0.0000
     18 H          11.6559   -5.3953    4.0255 H       1  UNL1        0.0000
     19 H          11.7297   -4.0146    2.9459 H       1  UNL1        0.0000
     20 H           9.2929   -0.2056    0.3964 H       1  UNL1        0.0000
     21 H           8.4826   -1.4729   -0.5076 H       1  UNL1        0.0000
     22 H           9.9967   -1.8055    0.3133 H       1  UNL1        0.0000
     23 H           5.6872   -1.3736    2.5902 H       1  UNL1        0.0000
     24 H           6.0842   -0.4555    1.1542 H       1  UNL1        0.0000
     25 H           6.6157    0.1040    2.7393 H       1  UNL1        0.0000
     26 H           8.5682   -4.2120    1.5686 H       1  UNL1        0.0000
     27 H           6.9046   -3.8341    1.1717 H       1  UNL1        0.0000
     28 H           7.3865   -4.0152    2.8484 H       1  UNL1        0.0000
@<TRIPOS>BOND
     1    21     8    1
     2    22     8    1
     3     8    20    1
     4     8     1    1
     5    24     9    1
     6    27    10    1
     7    26    10    1
     8    10     1    1
     9    10    28    1
    10     1     9    1
    11     1     3    1
    12     9    23    1
    13     9    25    1
    14    19     7    1
    15    17     7    1
    16     3     4    2
    17     7    18    1
    18     7     2    1
    19     4     2    1
    20     2     6    1
    21     2     5    1
    22    16     6    1
    23    11     5    1
    24     6    15    1
    25     6    14    1
    26     5    13    1
    27     5    12    1
