@<TRIPOS>MOLECULE
1,2
 25 25 0 0 0
SMALL
GASTEIGER

@<TRIPOS>ATOM
      1 C           1.8767    5.9985   33.2093 C.3     1  UNL1       -0.0053
      2 C           3.0922    6.7887   33.4071 C.3     1  UNL1        0.0052
      3 C           3.1716    7.7068   32.3630 C.2     1  UNL1       -0.0658
      4 C           2.0527    7.5351   31.5052 C.2     1  UNL1       -0.0658
      5 C           1.2732    6.4856   31.9791 C.3     1  UNL1        0.0052
      6 C           1.6514    4.5848   33.7302 C.3     1  UNL1       -0.0574
      7 H           2.0333    3.8578   33.0081 H       1  UNL1        0.0236
      8 H           0.5836    4.3980   33.8785 H       1  UNL1        0.0236
      9 H           2.1736    4.4420   34.6752 H       1  UNL1        0.0236
     10 C           4.1470    6.4895   34.4447 C.3     1  UNL1       -0.0545
     11 H           3.6918    6.2757   35.4113 H       1  UNL1        0.0239
     12 H           4.8230    7.3330   34.5597 H       1  UNL1        0.0239
     13 H           4.7379    5.6227   34.1396 H       1  UNL1        0.0239
     14 C           4.2380    8.7281   32.1123 C.3     1  UNL1       -0.0430
     15 H           5.0882    8.5837   32.7730 H       1  UNL1        0.0275
     16 H           3.8395    9.7317   32.2604 H       1  UNL1        0.0275
     17 H           4.5905    8.6553   31.0841 H       1  UNL1        0.0275
     18 C           1.8094    8.3794   30.2918 C.3     1  UNL1       -0.0430
     19 H           0.8537    8.1424   29.8335 H       1  UNL1        0.0275
     20 H           2.5937    8.2257   29.5497 H       1  UNL1        0.0275
     21 H           1.8074    9.4330   30.5667 H       1  UNL1        0.0275
     22 C           0.2068    5.7251   31.2359 C.3     1  UNL1       -0.0545
     23 H          -0.1082    6.2686   30.3494 H       1  UNL1        0.0239
     24 H          -0.6587    5.5395   31.8680 H       1  UNL1        0.0239
     25 H           0.6084    4.7634   30.9100 H       1  UNL1        0.0239
@<TRIPOS>BOND
     1    20    18    1
     2    19    18    1
     3    18    21    1
     4    18     4    1
     5    23    22    1
     6    25    22    1
     7    17    14    1
     8    22    24    1
     9    22     5    1
    10     4     5    1
    11     4     3    2
    12     5     1    1
    13    14    16    1
    14    14     3    1
    15    14    15    1
    16     3     2    1
    17     7     6    1
    18     1     2    1
    19     1     6    1
    20     2    10    1
    21     6     8    1
    22     6     9    1
    23    13    10    1
    24    10    12    1
    25    10    11    1
