@<TRIPOS>MOLECULE
2,3
 22 22 0 0 0
SMALL
GASTEIGER

@<TRIPOS>ATOM
      1 SI          8.8665    5.0889    7.3620 Si      1  UNL1        0.0000
      2 C           7.1960    5.5610    8.1146 C.3     1  UNL1        0.0000
      3 C           6.3772    4.7375    8.9791 C.3     1  UNL1        0.0000
      4 H           6.6904    3.7545    9.3213 H       1  UNL1        0.0000
      5 C           5.6379    5.6225    9.8296 C.2     1  UNL1        0.0000
      6 H           4.9846    5.3111   10.6299 H       1  UNL1        0.0000
      7 C           5.9393    6.9282    9.4774 C.2     1  UNL1        0.0000
      8 H           5.5107    7.8145    9.9127 H       1  UNL1        0.0000
      9 C           6.8555    6.9001    8.4225 C.3     1  UNL1        0.0000
     10 H           7.2768    7.7672    7.9400 H       1  UNL1        0.0000
     11 C          10.0800    6.5208    7.7190 C.3     1  UNL1        0.0000
     12 H          11.0969    6.2370    7.4669 H       1  UNL1        0.0000
     13 H          10.0641    6.8003    8.7672 H       1  UNL1        0.0000
     14 H           9.8326    7.4038    7.1391 H       1  UNL1        0.0000
     15 C           8.8467    4.7958    5.4690 C.3     1  UNL1        0.0000
     16 H           7.9699    5.2586    5.0231 H       1  UNL1        0.0000
     17 H           8.8442    3.7410    5.2102 H       1  UNL1        0.0000
     18 H           9.7215    5.2382    5.0011 H       1  UNL1        0.0000
     19 C           9.5281    3.5349    8.2706 C.3     1  UNL1        0.0000
     20 H           8.8532    2.6863    8.2123 H       1  UNL1        0.0000
     21 H           9.6903    3.7482    9.3224 H       1  UNL1        0.0000
     22 H          10.4793    3.2249    7.8497 H       1  UNL1        0.0000
@<TRIPOS>BOND
     1    18    15    1
     2    16    15    1
     3    17    15    1
     4    15     1    1
     5    14    11    1
     6     1    11    1
     7     1     2    1
     8     1    19    1
     9    12    11    1
    10    11    13    1
    11    22    19    1
    12    10     9    1
    13     2     9    1
    14     2     3    1
    15    20    19    1
    16    19    21    1
    17     9     7    1
    18     3     4    1
    19     3     5    1
    20     7     5    2
    21     7     8    1
    22     5     6    1
