@<TRIPOS>MOLECULE
5,6
 10 9 0 0 0
SMALL
GASTEIGER

@<TRIPOS>ATOM
      1 C          10.4759    7.0712    6.9675 C.3     1  UNL1       -0.0392
      2 H           9.9949    7.4536    6.0658 H       1  UNL1        0.0278
      3 H           9.9702    7.5087    7.8300 H       1  UNL1        0.0278
      4 H          10.3422    5.9871    6.9995 H       1  UNL1        0.0278
      5 C          11.9268    7.4323    6.9763 C.2     1  UNL1       -0.0441
      6 C          13.0446    6.7311    7.0088 C.2     1  UNL1       -0.0441
      7 C          13.3516    5.2684    7.0531 C.3     1  UNL1       -0.0392
      8 H          12.4335    4.6759    7.0677 H       1  UNL1        0.0278
      9 H          13.9330    5.0294    7.9452 H       1  UNL1        0.0278
     10 H          13.9387    4.9773    6.1807 H       1  UNL1        0.0278
@<TRIPOS>BOND
     1     2     1    1
     2    10     7    1
     3     1     5    1
     4     1     4    1
     5     1     3    1
     6     5     6    2
     7     6     7    1
     8     7     8    1
     9     7     9    1
