@<TRIPOS>MOLECULE
1,3
 13 13 0 0 0
SMALL
GASTEIGER

@<TRIPOS>ATOM
      1 C           3.0879    2.8864   -8.3413 C.2     1  UNL1        0.2329
      2 O           4.0512    3.2620   -8.9762 O.2     1  UNL1       -0.2832
      3 C           3.2135    2.7381   -6.7806 C.ar    1  UNL1        0.0256
      4 C           3.2128    3.8524   -5.9332 C.ar    1  UNL1       -0.0508
      5 H           2.8299    4.7970   -6.2966 H       1  UNL1        0.0625
      6 C           3.7311    3.7626   -4.6522 C.ar    1  UNL1       -0.0611
      7 H           3.7099    4.6258   -4.0019 H       1  UNL1        0.0618
      8 C           4.2832    2.5743   -4.2029 C.ar    1  UNL1       -0.0617
      9 H           4.6901    2.5083   -3.2041 H       1  UNL1        0.0618
     10 C           4.3263    1.4718   -5.0446 C.ar    1  UNL1       -0.0611
     11 H           4.7727    0.5482   -4.7020 H       1  UNL1        0.0618
     12 C           3.7967    1.5525   -6.3191 C.ar    1  UNL1       -0.0508
     13 H           3.8573    0.7031   -6.9892 H       1  UNL1        0.0625
@<TRIPOS>BOND
     1     2     1    2
     2     1     3    1
     3    13    12    1
     4     3    12   ar
     5     3     4   ar
     6    12    10   ar
     7     5     4    1
     8     4     6   ar
     9    10    11    1
    10    10     8   ar
    11     6     8   ar
    12     6     7    1
    13     8     9    1
