@<TRIPOS>MOLECULE
5,6
 22 22 0 0 0
SMALL
GASTEIGER

@<TRIPOS>ATOM
      1 SI          1.7344   13.8969    1.5308 Si      1  UNL1        0.0000
      2 C           3.5834   15.7808    2.8367 C.2     1  UNL1        0.0000
      3 C           3.5877   17.1466    3.0417 C.2     1  UNL1        0.0000
      4 C           2.2636   17.6194    2.9790 C.2     1  UNL1        0.0000
      5 C           1.4215   16.5432    2.7411 C.2     1  UNL1        0.0000
      6 C           2.2283   15.3360    2.6437 C.3     1  UNL1        0.0000
      7 C           1.2544   14.5339   -0.2071 C.3     1  UNL1        0.0000
      8 C           3.1733   12.6519    1.3458 C.3     1  UNL1        0.0000
      9 C           0.2157   12.9895    2.2759 C.3     1  UNL1        0.0000
     10 H           4.4524   15.1430    2.7659 H       1  UNL1        0.0000
     11 H           4.4600   17.7634    3.1911 H       1  UNL1        0.0000
     12 H           1.9619   18.6524    3.0605 H       1  UNL1        0.0000
     13 H           0.3798   16.6080    2.4528 H       1  UNL1        0.0000
     14 H           0.9996   13.7160   -0.8738 H       1  UNL1        0.0000
     15 H           2.0717   15.0878   -0.6578 H       1  UNL1        0.0000
     16 H           0.3987   15.1996   -0.1580 H       1  UNL1        0.0000
     17 H           2.8719   11.8071    0.7353 H       1  UNL1        0.0000
     18 H           3.5032   12.2628    2.3039 H       1  UNL1        0.0000
     19 H           4.0282   13.1146    0.8646 H       1  UNL1        0.0000
     20 H          -0.1748   12.2479    1.5852 H       1  UNL1        0.0000
     21 H          -0.5908   13.6879    2.4886 H       1  UNL1        0.0000
     22 H           0.4648   12.4715    3.2022 H       1  UNL1        0.0000
@<TRIPOS>BOND
     1    14     7    1
     2    15     7    1
     3     7    16    1
     4     7     1    1
     5    17     8    1
     6    19     8    1
     7     8     1    1
     8     8    18    1
     9     1     9    1
    10     1     6    1
    11    20     9    1
    12     9    21    1
    13     9    22    1
    14    13     5    1
    15     6     5    1
    16     6     2    1
    17     5     4    2
    18    10     2    1
    19     2     3    2
    20     4     3    1
    21     4    12    1
    22     3    11    1
