@<TRIPOS>MOLECULE
3,7
 40 44 0 0 0
SMALL
GASTEIGER

@<TRIPOS>ATOM
      1 SI          3.5013    1.7739    0.8710 Si      1  UNL1        0.0000
      2 C          -0.3630    2.1316    2.6061 C.3     1  UNL1        0.0000
      3 C          -0.0145    3.3855    3.5681 C.3     1  UNL1        0.0000
      4 C           0.8342    1.5446    1.8631 C.3     1  UNL1        0.0000
      5 H           0.4814    1.1394    0.9041 H       1  UNL1        0.0000
      6 H           1.2312    0.6913    2.4295 H       1  UNL1        0.0000
      7 C           1.9711    2.5750    1.6315 C.3     1  UNL1        0.0000
      8 H           1.5957    3.2799    0.8629 H       1  UNL1        0.0000
      9 C           3.3051    1.3216   -0.9867 C.3     1  UNL1        0.0000
     10 H           2.5405    0.5641   -1.1295 H       1  UNL1        0.0000
     11 H           4.2287    0.9326   -1.4037 H       1  UNL1        0.0000
     12 H           3.0198    2.1861   -1.5787 H       1  UNL1        0.0000
     13 C           4.0202    0.1265    1.7088 C.3     1  UNL1        0.0000
     14 H           3.3251   -0.6656    1.4485 H       1  UNL1        0.0000
     15 H           4.0617    0.1831    2.7906 H       1  UNL1        0.0000
     16 H           5.0010   -0.1824    1.3605 H       1  UNL1        0.0000
     17 C           4.9324    3.0535    0.9531 C.3     1  UNL1        0.0000
     18 H           5.8953    2.5641    0.8483 H       1  UNL1        0.0000
     19 H           4.9405    3.6090    1.8906 H       1  UNL1        0.0000
     20 H           4.8529    3.7708    0.1417 H       1  UNL1        0.0000
     21 B          -0.9453    3.6490    2.1085 B       1  UNL1        0.0000
     22 H          -0.4150    4.1675    1.1926 H       1  UNL1        0.0000
     23 B          -1.9365    2.2207    1.8948 B       1  UNL1        0.0000
     24 H          -2.0693    1.7894    0.8081 H       1  UNL1        0.0000
     25 B          -1.6210    1.1244    3.2217 B       1  UNL1        0.0000
     26 H          -1.5433   -0.0319    3.0170 H       1  UNL1        0.0000
     27 B          -0.4403    1.8577    4.2869 B       1  UNL1        0.0000
     28 H           0.4144    1.2021    4.7577 H       1  UNL1        0.0000
     29 B          -1.3952    4.4409    3.5998 B       1  UNL1        0.0000
     30 H          -1.2072    5.5978    3.7341 H       1  UNL1        0.0000
     31 B          -2.6455    3.7157    2.5504 B       1  UNL1        0.0000
     32 H          -3.3995    4.3784    1.9363 H       1  UNL1        0.0000
     33 B          -3.0770    2.1371    3.2523 B       1  UNL1        0.0000
     34 H          -4.1529    1.6766    3.1280 H       1  UNL1        0.0000
     35 B          -2.1293    1.9128    4.7448 B       1  UNL1        0.0000
     36 H          -2.5218    1.2995    5.6695 H       1  UNL1        0.0000
     37 B          -1.0735    3.3512    4.9334 B       1  UNL1        0.0000
     38 H          -0.6492    3.7871    5.9494 H       1  UNL1        0.0000
     39 B          -2.7397    3.5289    4.3212 B       1  UNL1        0.0000
     40 H          -3.5747    4.0633    4.9557 H       1  UNL1        0.0000
@<TRIPOS>BOND
     1    12     9    1
     2    11     9    1
     3    10     9    1
     4     9     1    1
     5    20    17    1
     6    24    23    1
     7    18    17    1
     8     8     7    1
     9     1    17    1
    10     1     7    1
    11     1    13    1
    12     5     4    1
    13    17    19    1
    14    22    21    1
    15    16    13    1
    16    14    13    1
    17     7     4    1
    18    13    15    1
    19     4     6    1
    20     4     2    1
    21    23    21    1
    22    23    25    1
    23    23    33    1
    24    32    31    1
    25    21     2    1
    26    21    29    1
    27    31    33    1
    28    31    39    1
    29     2     3    1
    30     2    27    1
    31    26    25    1
    32    34    33    1
    33    25    33    1
    34     3    29    1
    35     3    27    1
    36     3    37    1
    37    29    30    1
    38    29    37    1
    39    27    28    1
    40    27    37    1
    41    39    35    1
    42    39    40    1
    43    35    36    1
    44    37    38    1
