@<TRIPOS>MOLECULE
2,3
 15 14 0 0 0
SMALL
GASTEIGER

@<TRIPOS>ATOM
      1 SI         15.3878    4.2728    2.8890 Si      1  UNL1        0.0000
      2 C          15.3540    2.3826    2.6889 C.3     1  UNL1        0.0000
      3 C          13.5001    4.4001    2.7692 C.3     1  UNL1        0.0000
      4 C          16.1502    4.9330    4.5221 C.3     1  UNL1        0.0000
      5 C          16.3578    5.2469    1.5497 C.3     1  UNL1        0.0000
      6 H          15.9063    2.0327    1.8135 H       1  UNL1        0.0000
      7 H          15.7855    1.8526    3.5415 H       1  UNL1        0.0000
      8 H          13.0446    4.8404    3.6587 H       1  UNL1        0.0000
      9 H          13.1668    5.0190    1.9335 H       1  UNL1        0.0000
     10 H          15.4731    4.8361    5.3639 H       1  UNL1        0.0000
     11 H          16.3944    5.9855    4.4238 H       1  UNL1        0.0000
     12 H          17.0676    4.4077    4.7694 H       1  UNL1        0.0000
     13 H          15.8189    5.3093    0.6106 H       1  UNL1        0.0000
     14 H          17.3221    4.7893    1.3516 H       1  UNL1        0.0000
     15 H          16.5418    6.2625    1.8842 H       1  UNL1        0.0000
@<TRIPOS>BOND
     1    13     5    1
     2    14     5    1
     3     5    15    1
     4     5     1    1
     5     6     2    1
     6     9     3    1
     7     2     1    1
     8     2     7    1
     9     3     1    1
    10     3     8    1
    11     1     4    1
    12    11     4    1
    13     4    12    1
    14     4    10    1
