@<TRIPOS>MOLECULE
2,3
 15 14 0 0 0
SMALL
GASTEIGER

@<TRIPOS>ATOM
      1 SI          0.9788    2.9093    1.4009 Si      1  UNL1        0.0000
      2 C           0.8128    2.9093    3.2972 C.3     1  UNL1        0.0000
      3 C          -0.8961    2.9093    1.0712 C.3     1  UNL1        0.0000
      4 C           1.8931    1.3757    0.6970 C.3     1  UNL1        0.0000
      5 H           1.2626    2.0271    3.7580 H       1  UNL1        0.0000
      6 H          -1.2246    2.0270    0.5175 H       1  UNL1        0.0000
      7 H           1.8296    1.3486   -0.3857 H       1  UNL1        0.0000
      8 H           2.9444    1.3941    0.9639 H       1  UNL1        0.0000
      9 H           1.4735    0.4494    1.0751 H       1  UNL1        0.0000
     10 H           1.2626    3.7914    3.7580 H       1  UNL1        0.0000
     11 C           1.8931    4.4428    0.6970 C.3     1  UNL1        0.0000
     12 H          -1.2246    3.7915    0.5175 H       1  UNL1        0.0000
     13 H           1.8296    4.4699   -0.3857 H       1  UNL1        0.0000
     14 H           2.9444    4.4244    0.9639 H       1  UNL1        0.0000
     15 H           1.4735    5.3691    1.0751 H       1  UNL1        0.0000
@<TRIPOS>BOND
     1    13    11    1
     2     7     4    1
     3    12     3    1
     4     6     3    1
     5     4     8    1
     6     4     9    1
     7     4     1    1
     8    11    14    1
     9    11    15    1
    10    11     1    1
    11     3     1    1
    12     1     2    1
    13     2     5    1
    14     2    10    1
