@<TRIPOS>MOLECULE
3,5
 56 57 0 0 0
SMALL
GASTEIGER

@<TRIPOS>ATOM
      1 P          15.2326    6.1667    8.5561 P.3     1  UNL1        0.0000
      2 SI         16.7598    5.7799   11.3639 Si      1  UNL1        0.0000
      3 C          15.4584    5.2617   10.0995 C.3     1  UNL1        0.0000
      4 C          15.0590    3.7904    9.9737 C.2     1  UNL1        0.0000
      5 C          13.7458    3.5512   10.1427 C.2     1  UNL1        0.0000
      6 C          16.1723    2.8233    9.6377 C.3     1  UNL1        0.0000
      7 H          16.2900    2.7700    8.5533 H       1  UNL1        0.0000
      8 H          15.9868    1.8212   10.0135 H       1  UNL1        0.0000
      9 H          17.1126    3.1726   10.0535 H       1  UNL1        0.0000
     10 C          13.0706    2.1713   10.1726 C.3     1  UNL1        0.0000
     11 C          11.5461    2.3619   10.2894 C.3     1  UNL1        0.0000
     12 H          11.2869    2.8540   11.2270 H       1  UNL1        0.0000
     13 H          11.0384    1.3979   10.2615 H       1  UNL1        0.0000
     14 H          11.1717    2.9730    9.4651 H       1  UNL1        0.0000
     15 C          13.3191    1.3475    8.9006 C.3     1  UNL1        0.0000
     16 H          12.8576    1.8349    8.0467 H       1  UNL1        0.0000
     17 H          12.8743    0.3585    9.0103 H       1  UNL1        0.0000
     18 H          14.3763    1.2254    8.6969 H       1  UNL1        0.0000
     19 C          13.5323    1.3745   11.4023 C.3     1  UNL1        0.0000
     20 H          14.5998    1.1791   11.3741 H       1  UNL1        0.0000
     21 H          13.0110    0.4187   11.4476 H       1  UNL1        0.0000
     22 H          13.3138    1.9293   12.3108 H       1  UNL1        0.0000
     23 C          17.3959    4.2971   12.4043 C.3     1  UNL1        0.0000
     24 H          16.6695    3.4956   12.4706 H       1  UNL1        0.0000
     25 H          17.6219    4.6190   13.4155 H       1  UNL1        0.0000
     26 H          18.3088    3.8800   11.9906 H       1  UNL1        0.0000
     27 C          18.3377    6.6908   10.7643 C.3     1  UNL1        0.0000
     28 H          19.1016    6.0100   10.4020 H       1  UNL1        0.0000
     29 H          18.7701    7.2574   11.5841 H       1  UNL1        0.0000
     30 H          18.1160    7.3900    9.9653 H       1  UNL1        0.0000
     31 C          15.9648    7.0034   12.6272 C.3     1  UNL1        0.0000
     32 H          16.1864    8.0312   12.3569 H       1  UNL1        0.0000
     33 H          16.3624    6.8421   13.6247 H       1  UNL1        0.0000
     34 H          14.8804    6.9067   12.6926 H       1  UNL1        0.0000
     35 C          16.6702    6.0129    7.4011 C.ar    1  UNL1        0.0000
     36 C          17.8152    5.2843    7.6860 C.ar    1  UNL1        0.0000
     37 H          17.9323    4.8548    8.6690 H       1  UNL1        0.0000
     38 C          18.7964    5.1233    6.7238 C.ar    1  UNL1        0.0000
     39 H          19.6925    4.5646    6.9557 H       1  UNL1        0.0000
     40 C          18.6311    5.6708    5.4625 C.ar    1  UNL1        0.0000
     41 H          19.3964    5.5403    4.7109 H       1  UNL1        0.0000
     42 C          17.4764    6.3772    5.1614 C.ar    1  UNL1        0.0000
     43 H          17.3411    6.7960    4.1739 H       1  UNL1        0.0000
     44 C          16.4966    6.5382    6.1213 C.ar    1  UNL1        0.0000
     45 H          15.5867    7.0815    5.8965 H       1  UNL1        0.0000
     46 C          15.4891    7.8957    9.1007 C.ar    1  UNL1        0.0000
     47 C          14.6397    8.3755   10.0953 C.ar    1  UNL1        0.0000
     48 H          13.8724    7.6958   10.5150 H       1  UNL1        0.0000
     49 C          14.7626    9.6627   10.5792 C.ar    1  UNL1        0.0000
     50 H          14.1151   10.0056   11.3711 H       1  UNL1        0.0000
     51 C          15.7232   10.5119   10.0521 C.ar    1  UNL1        0.0000
     52 H          15.8234   11.5187   10.4293 H       1  UNL1        0.0000
     53 C          16.5468   10.0622    9.0343 C.ar    1  UNL1        0.0000
     54 H          17.2909   10.7216    8.6108 H       1  UNL1        0.0000
     55 C          16.4330    8.7668    8.5616 C.ar    1  UNL1        0.0000
     56 H          17.0897    8.4288    7.7731 H       1  UNL1        0.0000
@<TRIPOS>BOND
     1    43    42    1
     2    41    40    1
     3    42    40   ar
     4    42    44   ar
     5    40    38   ar
     6    45    44    1
     7    44    35   ar
     8    38    39    1
     9    38    36   ar
    10    35    36   ar
    11    35     1    1
    12    36    37    1
    13    56    55    1
    14    16    15    1
    15     7     6    1
    16     1    46    1
    17     1     3    1
    18    55    53   ar
    19    55    46   ar
    20    54    53    1
    21    18    15    1
    22    15    17    1
    23    15    10    1
    24    53    51   ar
    25    46    47   ar
    26    14    11    1
    27     6     4    1
    28     6     8    1
    29     6     9    1
    30    30    27    1
    31     4     3    1
    32     4     5    2
    33    51    52    1
    34    51    49   ar
    35    47    48    1
    36    47    49   ar
    37     3     2    1
    38     5    10    1
    39    10    11    1
    40    10    19    1
    41    13    11    1
    42    11    12    1
    43    28    27    1
    44    49    50    1
    45    27     2    1
    46    27    29    1
    47     2    23    1
    48     2    31    1
    49    20    19    1
    50    19    21    1
    51    19    22    1
    52    26    23    1
    53    32    31    1
    54    23    24    1
    55    23    25    1
    56    31    34    1
    57    31    33    1
