@<TRIPOS>MOLECULE
3,5
 53 54 0 0 0
SMALL
GASTEIGER

@<TRIPOS>ATOM
      1 P          13.0414    4.0592   15.8659 P.3     1  UNL1        0.0000
      2 SI         14.7258    3.2070   13.2324 Si      1  UNL1        0.0000
      3 C          13.8894    2.8077   14.8704 C.3     1  UNL1        0.0000
      4 C          14.3943    1.6980   15.7838 C.2     1  UNL1        0.0000
      5 C          13.4554    0.8435   16.2400 C.2     1  UNL1        0.0000
      6 C          13.7983   -0.2862   17.1952 C.3     1  UNL1        0.0000
      7 H          13.9497    0.1389   18.1947 H       1  UNL1        0.0000
      8 H          14.7371   -0.7724   16.8994 H       1  UNL1        0.0000
      9 C          12.7026   -1.3490   17.2999 C.3     1  UNL1        0.0000
     10 H          12.6633   -1.9550   16.3974 H       1  UNL1        0.0000
     11 H          11.7256   -0.8788   17.4390 H       1  UNL1        0.0000
     12 H          12.8920   -2.0137   18.1424 H       1  UNL1        0.0000
     13 C          15.8742    1.6436   16.1143 C.3     1  UNL1        0.0000
     14 H          16.2425    0.6218   15.9711 H       1  UNL1        0.0000
     15 H          16.4167    2.2916   15.4238 H       1  UNL1        0.0000
     16 C          16.1913    2.0802   17.5453 C.3     1  UNL1        0.0000
     17 H          17.2693    2.1266   17.6927 H       1  UNL1        0.0000
     18 H          15.7797    1.3809   18.2667 H       1  UNL1        0.0000
     19 H          15.7742    3.0643   17.7454 H       1  UNL1        0.0000
     20 C          15.7401    1.7289   12.5594 C.3     1  UNL1        0.0000
     21 H          16.3319    1.2271   13.3150 H       1  UNL1        0.0000
     22 H          16.4201    2.0719   11.7859 H       1  UNL1        0.0000
     23 H          15.0807    0.9944   12.1101 H       1  UNL1        0.0000
     24 C          15.8638    4.7465   13.0716 C.3     1  UNL1        0.0000
     25 H          15.4083    5.6282   13.5107 H       1  UNL1        0.0000
     26 H          16.0463    4.9616   12.0222 H       1  UNL1        0.0000
     27 H          16.8309    4.5999   13.5443 H       1  UNL1        0.0000
     28 C          13.3788    3.4523   11.8847 C.3     1  UNL1        0.0000
     29 H          12.5073    2.8266   12.0779 H       1  UNL1        0.0000
     30 H          13.7652    3.1728   10.9093 H       1  UNL1        0.0000
     31 H          13.0500    4.4842   11.8208 H       1  UNL1        0.0000
     32 C          12.3808    5.1958   14.6016 C.ar    1  UNL1        0.0000
     33 C          12.8669    6.4744   14.3460 C.ar    1  UNL1        0.0000
     34 H          13.7103    6.8518   14.9056 H       1  UNL1        0.0000
     35 C          12.2728    7.2685   13.3814 C.ar    1  UNL1        0.0000
     36 H          12.6646    8.2563   13.1853 H       1  UNL1        0.0000
     37 C          11.1809    6.8033   12.6693 C.ar    1  UNL1        0.0000
     38 H          10.7172    7.4246   11.9173 H       1  UNL1        0.0000
     39 C          10.6775    5.5372   12.9282 C.ar    1  UNL1        0.0000
     40 H           9.8208    5.1818   12.3785 H       1  UNL1        0.0000
     41 C          11.2738    4.7450   13.8896 C.ar    1  UNL1        0.0000
     42 H          10.8849    3.7359   14.1185 H       1  UNL1        0.0000
     43 C          14.1983    5.2482   16.6916 C.ar    1  UNL1        0.0000
     44 C          13.6257    6.0731   17.6575 C.ar    1  UNL1        0.0000
     45 H          12.5545    6.0254   17.8149 H       1  UNL1        0.0000
     46 C          14.4114    6.9439   18.3870 C.ar    1  UNL1        0.0000
     47 H          13.9618    7.5893   19.1288 H       1  UNL1        0.0000
     48 C          15.7807    6.9851   18.1716 C.ar    1  UNL1        0.0000
     49 H          16.3973    7.6631   18.7442 H       1  UNL1        0.0000
     50 C          16.3583    6.1509   17.2288 C.ar    1  UNL1        0.0000
     51 H          17.4266    6.1791   17.0657 H       1  UNL1        0.0000
     52 C          15.5717    5.2781   16.4973 C.ar    1  UNL1        0.0000
     53 H          16.0127    4.6196   15.7652 H       1  UNL1        0.0000
@<TRIPOS>BOND
     1    30    28    1
     2    22    20    1
     3    31    28    1
     4    28    29    1
     5    28     2    1
     6    38    37    1
     7    26    24    1
     8    23    20    1
     9    40    39    1
    10    20     2    1
    11    20    21    1
    12    37    39   ar
    13    37    35   ar
    14    39    41   ar
    15    24     2    1
    16    24    25    1
    17    24    27    1
    18    36    35    1
    19     2     3    1
    20    35    33   ar
    21    41    42    1
    22    41    32   ar
    23    33    32   ar
    24    33    34    1
    25    32     1    1
    26     3     4    1
    27     3     1    1
    28    15    13    1
    29    53    52    1
    30     4    13    1
    31     4     5    2
    32     1    43    1
    33    14    13    1
    34    13    16    1
    35     5     6    1
    36    10     9    1
    37    52    43   ar
    38    52    50   ar
    39    43    44   ar
    40     8     6    1
    41    51    50    1
    42     6     9    1
    43     6     7    1
    44    50    48   ar
    45     9    11    1
    46     9    12    1
    47    16    17    1
    48    16    19    1
    49    16    18    1
    50    44    45    1
    51    44    46   ar
    52    48    46   ar
    53    48    49    1
    54    46    47    1
