@<TRIPOS>MOLECULE
3,5
 47 48 0 0 0
SMALL
GASTEIGER

@<TRIPOS>ATOM
      1 P          13.0396    8.3882    5.6569 P.3     1  UNL1        0.0000
      2 SI         14.8897    8.5997    8.3174 Si      1  UNL1        0.0000
      3 C          14.4047    7.8136    6.6784 C.3     1  UNL1        0.0000
      4 C          15.4269    7.0675    5.8403 C.2     1  UNL1        0.0000
      5 C          15.0975    5.8119    5.4790 C.2     1  UNL1        0.0000
      6 C          16.0653    4.9809    4.6559 C.3     1  UNL1        0.0000
      7 H          15.6618    3.9957    4.4115 H       1  UNL1        0.0000
      8 H          17.0057    4.8397    5.1979 H       1  UNL1        0.0000
      9 H          16.3029    5.4928    3.7186 H       1  UNL1        0.0000
     10 C          16.7124    7.7487    5.4338 C.3     1  UNL1        0.0000
     11 H          17.5768    7.1720    5.7650 H       1  UNL1        0.0000
     12 H          16.7795    8.7482    5.8490 H       1  UNL1        0.0000
     13 H          16.7616    7.8247    4.3458 H       1  UNL1        0.0000
     14 C          14.1294    7.5000    9.7111 C.3     1  UNL1        0.0000
     15 H          13.1840    7.9066   10.0590 H       1  UNL1        0.0000
     16 H          14.7880    7.4383   10.5718 H       1  UNL1        0.0000
     17 H          13.9467    6.4779    9.3713 H       1  UNL1        0.0000
     18 C          14.3038   10.3865    8.6877 C.3     1  UNL1        0.0000
     19 H          15.0277   11.1272    8.3625 H       1  UNL1        0.0000
     20 H          14.1612   10.5182    9.7562 H       1  UNL1        0.0000
     21 H          13.3621   10.6156    8.2017 H       1  UNL1        0.0000
     22 C          16.7752    8.6194    8.6600 C.3     1  UNL1        0.0000
     23 H          17.2502    7.6812    8.3987 H       1  UNL1        0.0000
     24 H          16.9526    8.7944    9.7168 H       1  UNL1        0.0000
     25 H          17.2816    9.4084    8.1136 H       1  UNL1        0.0000
     26 C          11.8019    8.9085    6.8985 C.ar    1  UNL1        0.0000
     27 C          11.1789   10.1548    6.9116 C.ar    1  UNL1        0.0000
     28 H          11.4441   10.8942    6.1699 H       1  UNL1        0.0000
     29 C          10.2359   10.4603    7.8764 C.ar    1  UNL1        0.0000
     30 H           9.7702   11.4353    7.8788 H       1  UNL1        0.0000
     31 C           9.8959    9.5286    8.8424 C.ar    1  UNL1        0.0000
     32 H           9.1701    9.7732    9.6035 H       1  UNL1        0.0000
     33 C          10.4870    8.2745    8.8224 C.ar    1  UNL1        0.0000
     34 H          10.2152    7.5425    9.5665 H       1  UNL1        0.0000
     35 C          11.4195    7.9672    7.8515 C.ar    1  UNL1        0.0000
     36 H          11.8972    6.9669    7.8298 H       1  UNL1        0.0000
     37 C          13.4070   10.0380    4.9028 C.ar    1  UNL1        0.0000
     38 C          12.5740   10.4632    3.8697 C.ar    1  UNL1        0.0000
     39 H          11.7072    9.8652    3.6160 H       1  UNL1        0.0000
     40 C          12.8463   11.6361    3.1922 C.ar    1  UNL1        0.0000
     41 H          12.1911   11.9682    2.3989 H       1  UNL1        0.0000
     42 C          13.9649   12.3845    3.5254 C.ar    1  UNL1        0.0000
     43 H          14.1806   13.3000    2.9934 H       1  UNL1        0.0000
     44 C          14.8112   11.9515    4.5330 C.ar    1  UNL1        0.0000
     45 H          15.6877   12.5314    4.7869 H       1  UNL1        0.0000
     46 C          14.5392   10.7772    5.2112 C.ar    1  UNL1        0.0000
     47 H          15.1956   10.4263    5.9940 H       1  UNL1        0.0000
@<TRIPOS>BOND
     1    41    40    1
     2    43    42    1
     3    40    42   ar
     4    40    38   ar
     5    42    44   ar
     6    39    38    1
     7     9     6    1
     8    38    37   ar
     9    13    10    1
    10     7     6    1
    11    44    45    1
    12    44    46   ar
    13     6     8    1
    14     6     5    1
    15    37    46   ar
    16    37     1    1
    17    46    47    1
    18    10    11    1
    19    10     4    1
    20    10    12    1
    21     5     4    2
    22     1     3    1
    23     1    26    1
    24     4     3    1
    25    28    27    1
    26     3     2    1
    27    26    27   ar
    28    26    35   ar
    29    27    29   ar
    30    36    35    1
    31    35    33   ar
    32    29    30    1
    33    29    31   ar
    34    25    22    1
    35    21    18    1
    36     2    22    1
    37     2    18    1
    38     2    14    1
    39    19    18    1
    40    23    22    1
    41    22    24    1
    42    18    20    1
    43    33    31   ar
    44    33    34    1
    45    31    32    1
    46    17    14    1
    47    14    15    1
    48    14    16    1
