@<TRIPOS>MOLECULE
2,3
 15 14 0 0 0
SMALL
GASTEIGER

@<TRIPOS>ATOM
      1 SI          1.0159    2.9525    1.3474 Si      1  UNL1        0.0000
      2 C           0.8979    2.9525    3.2578 C.3     1  UNL1        0.0000
      3 C          -0.8633    2.9525    0.9838 C.3     1  UNL1        0.0000
      4 C           1.9196    1.4056    0.6469 C.3     1  UNL1        0.0000
      5 H           1.3590    2.0641    3.7081 H       1  UNL1        0.0000
      6 H          -1.1838    2.0642    0.4244 H       1  UNL1        0.0000
      7 H           1.8876    1.3848   -0.4372 H       1  UNL1        0.0000
      8 H           2.9621    1.3862    0.9460 H       1  UNL1        0.0000
      9 H           1.4552    0.4934    1.0085 H       1  UNL1        0.0000
     10 H           1.3590    3.8409    3.7081 H       1  UNL1        0.0000
     11 C           1.9196    4.4995    0.6469 C.3     1  UNL1        0.0000
     12 H          -1.1838    3.8409    0.4244 H       1  UNL1        0.0000
     13 H           1.8876    4.5202   -0.4372 H       1  UNL1        0.0000
     14 H           2.9621    4.5188    0.9460 H       1  UNL1        0.0000
     15 H           1.4552    5.4116    1.0085 H       1  UNL1        0.0000
@<TRIPOS>BOND
     1    13    11    1
     2     7     4    1
     3    12     3    1
     4     6     3    1
     5     4     8    1
     6     4     9    1
     7     4     1    1
     8    11    14    1
     9    11    15    1
    10    11     1    1
    11     3     1    1
    12     1     2    1
    13     2     5    1
    14     2    10    1
