@<TRIPOS>MOLECULE
1,3
 12 12 0 0 0
SMALL
GASTEIGER

@<TRIPOS>ATOM
      1 C          12.8401    0.6615    4.0278 C.ar    1  UNL1       -0.0618
      2 H          12.1365    0.4187    4.8148 H       1  UNL1        0.0618
      3 C          12.3790    1.1141    2.7728 C.ar    1  UNL1       -0.0618
      4 H          11.3123    1.1875    2.5843 H       1  UNL1        0.0618
      5 C          13.2744    1.1778    1.6970 C.ar    1  UNL1       -0.0618
      6 H          12.9184    1.4852    0.7231 H       1  UNL1        0.0618
      7 C          14.5910    0.7905    1.8562 C.ar    1  UNL1       -0.0618
      8 H          15.2669    0.8190    1.0137 H       1  UNL1        0.0618
      9 C          15.0409    0.3340    3.0899 C.ar    1  UNL1       -0.0618
     10 H          16.0654    0.0091    3.2000 H       1  UNL1        0.0618
     11 C          14.1769    0.2750    4.1662 C.ar    1  UNL1       -0.0618
     12 H          14.5195   -0.1084    5.1157 H       1  UNL1        0.0618
@<TRIPOS>BOND
     1     6     5    1
     2     8     7    1
     3     5     7   ar
     4     5     3   ar
     5     7     9   ar
     6     4     3    1
     7     3     1   ar
     8     9    10    1
     9     9    11   ar
    10     1    11   ar
    11     1     2    1
    12    11    12    1
