@<TRIPOS>MOLECULE
2,10
 22 22 0 0 0
SMALL
GASTEIGER

@<TRIPOS>ATOM
      1 SI         -0.4541    1.3136    5.3657 Si      1  UNL1        0.0000
      2 C           1.7188   -0.4951    6.2028 C.3     1  UNL1        0.0000
      3 H           1.1920   -1.3925    5.8868 H       1  UNL1        0.0000
      4 C           2.7926   -0.4948    7.1300 C.3     1  UNL1        0.0000
      5 H           3.3831   -1.3594    7.4068 H       1  UNL1        0.0000
      6 C           2.8726    0.7745    7.7021 C.2     1  UNL1        0.0000
      7 H           3.5972    1.0874    8.4381 H       1  UNL1        0.0000
      8 C           1.8520    1.5626    7.1783 C.2     1  UNL1        0.0000
      9 H           1.6593    2.5918    7.4360 H       1  UNL1        0.0000
     10 C           1.0992    0.8097    6.2653 C.3     1  UNL1        0.0000
     11 C          -1.4974   -0.2263    4.9021 C.3     1  UNL1        0.0000
     12 H          -0.9607   -0.8484    4.1935 H       1  UNL1        0.0000
     13 H          -2.4429    0.0538    4.4465 H       1  UNL1        0.0000
     14 H          -1.7182   -0.8328    5.7749 H       1  UNL1        0.0000
     15 C          -0.1307    2.2850    3.7407 C.3     1  UNL1        0.0000
     16 H           0.1550    3.3109    3.9525 H       1  UNL1        0.0000
     17 H          -1.0094    2.3144    3.1011 H       1  UNL1        0.0000
     18 H           0.6858    1.8338    3.1688 H       1  UNL1        0.0000
     19 C          -1.5554    2.4344    6.4658 C.3     1  UNL1        0.0000
     20 H          -1.0158    3.3268    6.7642 H       1  UNL1        0.0000
     21 H          -1.8624    1.9203    7.3708 H       1  UNL1        0.0000
     22 H          -2.4523    2.7511    5.9414 H       1  UNL1        0.0000
@<TRIPOS>BOND
     1    17    15    1
     2    18    15    1
     3    15    16    1
     4    15     1    1
     5    12    11    1
     6    13    11    1
     7    11     1    1
     8    11    14    1
     9     1    10    1
    10     1    19    1
    11     3     2    1
    12    22    19    1
    13     2    10    1
    14     2     4    1
    15    10     8    1
    16    19    20    1
    17    19    21    1
    18     4     5    1
    19     4     6    1
    20     8     9    1
    21     8     6    2
    22     6     7    1
