@<TRIPOS>MOLECULE
1,7
 18 19 0 0 0
SMALL
GASTEIGER

@<TRIPOS>ATOM
      1 C           1.6946   -0.8391    2.2740 C.3     1  UNL1        0.0127
      2 H           0.8048   -0.4255    1.7866 H       1  UNL1        0.0400
      3 C           1.4714   -2.1121    2.9694 C.2     1  UNL1       -0.0790
      4 H           0.4668   -2.5125    3.0618 H       1  UNL1        0.0575
      5 C           2.5551   -2.7411    3.4878 C.2     1  UNL1       -0.0790
      6 H           2.4836   -3.6773    4.0320 H       1  UNL1        0.0575
      7 C           3.8612   -2.0958    3.3035 C.3     1  UNL1        0.0127
      8 H           4.7121   -2.6982    3.6443 H       1  UNL1        0.0400
      9 C           4.0078   -1.5833    1.9325 C.ar    1  UNL1       -0.0359
     10 C           5.1482   -1.7114    1.1480 C.ar    1  UNL1       -0.0577
     11 H           6.0073   -2.2480    1.5332 H       1  UNL1        0.0621
     12 C           5.2061   -1.1402   -0.1168 C.ar    1  UNL1       -0.0615
     13 H           6.1119   -1.2264   -0.7045 H       1  UNL1        0.0618
     14 C           4.1106   -0.4657   -0.6263 C.ar    1  UNL1       -0.0615
     15 H           4.1594   -0.0185   -1.6114 H       1  UNL1        0.0618
     16 C           2.9434   -0.3670    0.1190 C.ar    1  UNL1       -0.0577
     17 H           2.0853    0.1538   -0.2889 H       1  UNL1        0.0621
     18 C           2.8721   -0.9064    1.3990 C.ar    1  UNL1       -0.0359
@<TRIPOS>BOND
     1    15    14    1
     2    13    12    1
     3    14    12   ar
     4    14    16   ar
     5    17    16    1
     6    12    10   ar
     7    16    18   ar
     8    10    11    1
     9    10     9   ar
    10    18     9   ar
    11    18     1    1
    12     2     1    1
    13     9     7    1
    14     1     3    1
    15     3     4    1
    16     3     5    2
    17     7     5    1
    18     7     8    1
    19     5     6    1
