@<TRIPOS>MOLECULE
1,3
 30 29 0 0 0
SMALL
GASTEIGER

@<TRIPOS>ATOM
      1 C          11.7400    0.1997   10.9997 C.1     1  UNL1        0.0000
      2 O          11.8144   -0.4654   11.9888 O.2     1  UNL1        0.0000
      3 C          12.0888    1.0437   10.0265 C.2     1  UNL1        0.0000
      4 C          13.1582    1.6948    9.5163 C.3     1  UNL1        0.0000
      5 SI         12.8960    2.6221    7.8949 Si      1  UNL1        0.0000
      6 C          11.0060    2.6752    7.6041 C.3     1  UNL1        0.0000
      7 C          13.6848    1.6449    6.4543 C.3     1  UNL1        0.0000
      8 C          13.5408    4.4201    7.9194 C.3     1  UNL1        0.0000
      9 SI         14.8225    1.3701   10.3782 Si      1  UNL1        0.0000
     10 C          14.6533    1.7682   12.2384 C.3     1  UNL1        0.0000
     11 C          15.2495   -0.4750   10.1449 C.3     1  UNL1        0.0000
     12 C          16.2081    2.4506    9.6343 C.3     1  UNL1        0.0000
     13 H          10.7440    2.9238    6.5805 H       1  UNL1        0.0000
     14 H          10.5371    3.4116    8.2490 H       1  UNL1        0.0000
     15 H          10.5839    1.6829    7.8240 H       1  UNL1        0.0000
     16 H          13.4636    2.0928    5.4904 H       1  UNL1        0.0000
     17 H          13.3181    0.6227    6.4400 H       1  UNL1        0.0000
     18 H          14.7638    1.6043    6.5568 H       1  UNL1        0.0000
     19 H          13.2232    4.9619    7.0339 H       1  UNL1        0.0000
     20 H          14.6239    4.4392    7.9423 H       1  UNL1        0.0000
     21 H          13.1847    4.9662    8.7870 H       1  UNL1        0.0000
     22 H          15.5816    1.5872   12.7721 H       1  UNL1        0.0000
     23 H          13.8885    1.1435   12.6874 H       1  UNL1        0.0000
     24 H          14.3750    2.8048   12.4035 H       1  UNL1        0.0000
     25 H          16.1458   -0.7580   10.6887 H       1  UNL1        0.0000
     26 H          15.4051   -0.7166    9.0980 H       1  UNL1        0.0000
     27 H          14.4329   -1.0927   10.5051 H       1  UNL1        0.0000
     28 H          17.1695    2.1906   10.0649 H       1  UNL1        0.0000
     29 H          16.0388    3.5042    9.8262 H       1  UNL1        0.0000
     30 H          16.2826    2.3169    8.5610 H       1  UNL1        0.0000
@<TRIPOS>BOND
     1    16     7    1
     2    17     7    1
     3     7    18    1
     4     7     5    1
     5    13     6    1
     6    19     8    1
     7     6    15    1
     8     6     5    1
     9     6    14    1
    10     5     8    1
    11     5     4    1
    12     8    20    1
    13     8    21    1
    14    30    12    1
    15    26    11    1
    16     4     3    1
    17     4     9    1
    18    12    29    1
    19    12    28    1
    20    12     9    1
    21     3     1    2
    22    11     9    1
    23    11    27    1
    24    11    25    1
    25     9    10    1
    26     1     2    2
    27    10    24    1
    28    10    23    1
    29    10    22    1
