@<TRIPOS>MOLECULE
2,6
 27 27 0 0 0
SMALL
GASTEIGER

@<TRIPOS>ATOM
      1 SI          0.0592   11.7787    7.0446 Si      1  UNL1        0.0000
      2 C           1.3467   11.4022    4.5873 C.2     1  UNL1        0.0000
      3 C           0.1647   11.4594    5.1723 C.2     1  UNL1        0.0000
      4 C          -0.9636   11.2684    4.2981 C.ar    1  UNL1        0.0000
      5 C          -0.7346   11.1352    2.8916 C.ar    1  UNL1        0.0000
      6 C           0.5509   11.1258    2.3254 C.3     1  UNL1        0.0000
      7 H           0.5202   11.0263    1.2343 H       1  UNL1        0.0000
      8 C          -2.2738   11.1996    4.7803 C.ar    1  UNL1        0.0000
      9 H          -2.4445   11.2678    5.8426 H       1  UNL1        0.0000
     10 C          -3.3394   11.0417    3.9275 C.ar    1  UNL1        0.0000
     11 H          -4.3433   10.9909    4.3239 H       1  UNL1        0.0000
     12 C          -3.1351   10.9484    2.5478 C.ar    1  UNL1        0.0000
     13 H          -3.9810   10.8348    1.8861 H       1  UNL1        0.0000
     14 C          -1.8630   10.9922    2.0478 C.ar    1  UNL1        0.0000
     15 H          -1.6940   10.9077    0.9839 H       1  UNL1        0.0000
     16 C          -0.3106   10.1180    7.9169 C.3     1  UNL1        0.0000
     17 H          -1.1968    9.6388    7.5110 H       1  UNL1        0.0000
     18 H          -0.4706   10.2620    8.9813 H       1  UNL1        0.0000
     19 H           0.5167    9.4238    7.7997 H       1  UNL1        0.0000
     20 C          -1.2797   13.0886    7.4411 C.3     1  UNL1        0.0000
     21 H          -1.5249   13.6869    6.5687 H       1  UNL1        0.0000
     22 H          -0.9311   13.7655    8.2153 H       1  UNL1        0.0000
     23 H          -2.1996   12.6377    7.8004 H       1  UNL1        0.0000
     24 C           1.7267   12.4770    7.6444 C.3     1  UNL1        0.0000
     25 H           2.5615   11.8477    7.3554 H       1  UNL1        0.0000
     26 H           1.7435   12.5688    8.7267 H       1  UNL1        0.0000
     27 H           1.9078   13.4635    7.2271 H       1  UNL1        0.0000
@<TRIPOS>BOND
     1    15    14    1
     2     7     6    1
     3    13    12    1
     4    14    12   ar
     5    14     5   ar
     6     6     5    1
     7    12    10   ar
     8     5     4   ar
     9    10    11    1
    10    10     8   ar
    11     4     8   ar
    12     4     3    1
    13     2     3    2
    14     8     9    1
    15     3     1    1
    16    21    20    1
    17     1    20    1
    18     1    24    1
    19     1    16    1
    20    27    24    1
    21    25    24    1
    22    20    23    1
    23    20    22    1
    24    17    16    1
    25    24    26    1
    26    19    16    1
    27    16    18    1
