@<TRIPOS>MOLECULE
1,2
 20 20 0 0 0
SMALL
GASTEIGER

@<TRIPOS>ATOM
      1 C           9.9596    1.8007    1.2894 C.3     1  UNL1       -0.0346
      2 C           9.6603    3.1396    1.5168 C.3     1  UNL1       -0.0346
      3 C           9.5588    3.7262    2.8975 C.3     1  UNL1       -0.0462
      4 H           9.1844    2.9827    3.5976 H       1  UNL1        0.0271
      5 H           8.8682    4.5723    2.9188 H       1  UNL1        0.0271
      6 C          10.9519    4.2465    3.3244 C.3     1  UNL1       -0.0345
      7 H          11.0704    5.2659    2.9523 H       1  UNL1        0.0307
      8 H          10.9866    4.2953    4.4174 H       1  UNL1        0.0307
      9 C          12.1140    3.4334    2.8211 C.2     1  UNL1       -0.0879
     10 C          12.2325    2.1153    2.8674 C.2     1  UNL1       -0.0879
     11 C          11.2034    1.1888    3.4346 C.3     1  UNL1       -0.0345
     12 H          10.7154    1.6753    4.2784 H       1  UNL1        0.0307
     13 H          11.6915    0.2890    3.8122 H       1  UNL1        0.0307
     14 C          10.1418    0.7675    2.3867 C.3     1  UNL1       -0.0462
     15 H          10.4542   -0.1630    1.9146 H       1  UNL1        0.0271
     16 H           9.2022    0.5738    2.9024 H       1  UNL1        0.0271
     17 H          10.5335    1.5779    0.3914 H       1  UNL1        0.0306
     18 H          10.0017    3.8555    0.7705 H       1  UNL1        0.0306
     19 H          12.9201    4.0119    2.3904 H       1  UNL1        0.0569
     20 H          13.1167    1.6514    2.4530 H       1  UNL1        0.0569
@<TRIPOS>BOND
     1    17     1    1
     2    18     2    1
     3     1     2    1
     4     1    14    1
     5     2     3    1
     6    15    14    1
     7    14    16    1
     8    14    11    1
     9    19     9    1
    10    20    10    1
    11     9    10    2
    12     9     6    1
    13    10    11    1
    14     3     5    1
    15     3     6    1
    16     3     4    1
    17     7     6    1
    18     6     8    1
    19    11    13    1
    20    11    12    1
