@<TRIPOS>MOLECULE
2,15
 49 52 0 0 0
SMALL
GASTEIGER

@<TRIPOS>ATOM
      1 SI          3.2955    1.6149    1.7232 Si      1  UNL1        0.0000
      2 C           2.5366    2.2725    3.3468 C.3     1  UNL1        0.0000
      3 N           2.7846    3.4680    3.7780 N.3     1  UNL1        0.0000
      4 C           2.3463    3.9229    5.0874 C.3     1  UNL1        0.0000
      5 C           3.5636    4.0705    6.0005 C.3     1  UNL1        0.0000
      6 C           4.5590    5.0571    5.3961 C.3     1  UNL1        0.0000
      7 C           4.9171    4.6267    3.9759 C.3     1  UNL1        0.0000
      8 C           3.6421    4.4596    3.1492 C.3     1  UNL1        0.0000
      9 C           2.5759    2.3876    0.1550 C.ar    1  UNL1        0.0000
     10 C           1.5053    3.2728    0.2234 C.ar    1  UNL1        0.0000
     11 C           0.9580    3.8145   -0.9256 C.ar    1  UNL1        0.0000
     12 C           1.4771    3.4781   -2.1645 C.ar    1  UNL1        0.0000
     13 C           2.5424    2.5966   -2.2485 C.ar    1  UNL1        0.0000
     14 C           3.0842    2.0558   -1.0970 C.ar    1  UNL1        0.0000
     15 C           2.7804   -0.2094    1.8971 C.3     1  UNL1        0.0000
     16 C           1.8234   -0.8074    1.0697 C.2     1  UNL1        0.0000
     17 C           1.4796   -2.1355    1.2218 C.2     1  UNL1        0.0000
     18 C           2.0902   -2.9055    2.2050 C.2     1  UNL1        0.0000
     19 C           3.0565   -2.3462    3.0175 C.2     1  UNL1        0.0000
     20 C           3.3964   -1.0014    2.8752 C.3     1  UNL1        0.0000
     21 C           5.1851    1.7022    1.7410 C.2     1  UNL1        0.0000
     22 C           6.0092    1.0115    2.5856 C.2     1  UNL1        0.0000
     23 C           7.2702    1.0703    2.7027 C.2     1  UNL1        0.0000
     24 C           8.1231    1.8623    1.9949 C.2     1  UNL1        0.0000
     25 C           7.3836    2.6269    1.0752 C.2     1  UNL1        0.0000
     26 C           6.0006    2.5528    0.9601 C.2     1  UNL1        0.0000
     27 H           1.8417    4.8883    4.9780 H       1  UNL1        0.0000
     28 H           1.6460    3.1915    5.4939 H       1  UNL1        0.0000
     29 H           4.0353    3.0932    6.1174 H       1  UNL1        0.0000
     30 H           3.2383    4.4091    6.9841 H       1  UNL1        0.0000
     31 H           4.1150    6.0553    5.3723 H       1  UNL1        0.0000
     32 H           5.4591    5.1057    6.0098 H       1  UNL1        0.0000
     33 H           5.5645    5.3654    3.5015 H       1  UNL1        0.0000
     34 H           5.4516    3.6744    3.9973 H       1  UNL1        0.0000
     35 H           3.1024    5.4121    3.1089 H       1  UNL1        0.0000
     36 H           3.8814    4.1537    2.1309 H       1  UNL1        0.0000
     37 H           1.0902    3.5326    1.1878 H       1  UNL1        0.0000
     38 H           0.1229    4.4961   -0.8553 H       1  UNL1        0.0000
     39 H           1.0501    3.8985   -3.0633 H       1  UNL1        0.0000
     40 H           2.9475    2.3279   -3.2135 H       1  UNL1        0.0000
     41 H           3.9112    1.3627   -1.1664 H       1  UNL1        0.0000
     42 H           1.3663   -0.2201    0.2832 H       1  UNL1        0.0000
     43 H           0.7392   -2.5796    0.5724 H       1  UNL1        0.0000
     44 H           1.8208   -3.9450    2.3198 H       1  UNL1        0.0000
     45 H           3.5593   -2.9513    3.7591 H       1  UNL1        0.0000
     46 H           4.2566   -0.6137    3.4155 H       1  UNL1        0.0000
     47 H           9.1943    1.9242    2.0907 H       1  UNL1        0.0000
     48 H           7.9229    3.3057    0.4309 H       1  UNL1        0.0000
     49 H           5.5051    3.1742    0.2277 H       1  UNL1        0.0000
@<TRIPOS>BOND
     1    40    13    1
     2    39    12    1
     3    13    12   ar
     4    13    14   ar
     5    12    11   ar
     6    41    14    1
     7    14     9   ar
     8    11    38    1
     9    11    10   ar
    10     9    10   ar
    11     9     1    1
    12    10    37    1
    13    49    26    1
    14    42    16    1
    15    48    25    1
    16    43    17    1
    17    26    25    1
    18    26    21    2
    19    16    17    2
    20    16    15    1
    21    25    24    2
    22    17    18    1
    23     1    21    1
    24     1    15    1
    25     1     2    1
    26    21    22    1
    27    15    20    1
    28    24    47    1
    29    24    23    1
    30    36     8    1
    31    18    44    1
    32    18    19    2
    33    22    23    2
    34    20    19    1
    35    20    46    1
    36    19    45    1
    37    35     8    1
    38     8     3    1
    39     8     7    1
    40     2     3    1
    41    33     7    1
    42     3     4    1
    43     7    34    1
    44     7     6    1
    45    27     4    1
    46     4    28    1
    47     4     5    1
    48    31     6    1
    49     6     5    1
    50     6    32    1
    51     5    29    1
    52     5    30    1
