@<TRIPOS>MOLECULE
3,4
 39 42 0 0 0
SMALL
GASTEIGER

@<TRIPOS>ATOM
      1 N           7.3642   13.6809    9.0838 N.pl3   1  UNL1       -0.3002
      2 N           6.9170   11.6151    9.9642 N.pl3   1  UNL1       -0.2709
      3 C           6.5446   12.9019    9.7942 C.3     1  UNL1        0.1921
      4 C           6.8015   15.0280    9.0365 C.3     1  UNL1        0.0302
      5 H           6.6372   15.3068    7.9826 H       1  UNL1        0.0480
      6 H           7.5383   15.7308    9.4415 H       1  UNL1        0.0480
      7 C           8.5537   13.2887    8.5040 C.ar    1  UNL1        0.0411
      8 C           9.3574   14.1363    7.7712 C.ar    1  UNL1       -0.0399
      9 H           9.0740   15.1660    7.6249 H       1  UNL1        0.0636
     10 C          10.5469   13.6517    7.2201 C.ar    1  UNL1       -0.0594
     11 H          11.1664   14.3265    6.6472 H       1  UNL1        0.0618
     12 C          10.9361   12.3502    7.3953 C.ar    1  UNL1       -0.0539
     13 H          11.8593   11.9895    6.9670 H       1  UNL1        0.0624
     14 C          10.1413   11.4562    8.1420 C.ar    1  UNL1       -0.0143
     15 C          10.4910   10.1090    8.3679 C.ar    1  UNL1       -0.0539
     16 H          11.4102    9.7315    7.9459 H       1  UNL1        0.0624
     17 C           9.6806    9.2990    9.1159 C.ar    1  UNL1       -0.0594
     18 H           9.9590    8.2703    9.2929 H       1  UNL1        0.0618
     19 C           8.4845    9.7708    9.6670 C.ar    1  UNL1       -0.0396
     20 H           7.8718    9.1084   10.2584 H       1  UNL1        0.0636
     21 C           8.1024   11.0777    9.4523 C.ar    1  UNL1        0.0455
     22 C           8.9322   11.9376    8.6960 C.ar    1  UNL1        0.0246
     23 C           6.0802   10.7623   10.7404 C.ar    1  UNL1        0.0366
     24 C           6.0684   10.8856   12.1209 C.ar    1  UNL1       -0.0373
     25 H           6.6822   11.6349   12.5957 H       1  UNL1        0.0639
     26 C           5.2540   10.0593   12.8863 C.ar    1  UNL1       -0.0484
     27 C           4.4621    9.1172   12.2436 C.ar    1  UNL1       -0.0558
     28 H           3.8279    8.4702   12.8332 H       1  UNL1        0.0623
     29 C           4.4646    8.9855   10.8610 C.ar    1  UNL1       -0.0484
     30 C           5.2852    9.8165   10.1100 C.ar    1  UNL1       -0.0373
     31 H           5.3071    9.7301    9.0331 H       1  UNL1        0.0639
     32 C           5.2310   10.2116   14.3751 C.3     1  UNL1       -0.0396
     33 H           6.2415   10.1703   14.7775 H       1  UNL1        0.0278
     34 H           4.6351    9.4308   14.8404 H       1  UNL1        0.0278
     35 H           4.8082   11.1794   14.6434 H       1  UNL1        0.0278
     36 C           3.5894    7.9813   10.1758 C.3     1  UNL1       -0.0396
     37 H           3.1239    7.3126   10.8951 H       1  UNL1        0.0278
     38 H           4.1671    7.3883    9.4688 H       1  UNL1        0.0278
     39 H           2.8033    8.4901    9.6178 H       1  UNL1        0.0278
@<TRIPOS>BOND
     1    11    10    1
     2    13    12    1
     3    10    12   ar
     4    10     8   ar
     5    12    14   ar
     6     9     8    1
     7     8     7   ar
     8    16    15    1
     9     5     4    1
    10    14    15   ar
    11    14    22   ar
    12    15    17   ar
    13     7    22   ar
    14     7     1    1
    15    22    21   ar
    16    31    30    1
    17     4     1    1
    18     4     6    1
    19     1     3    1
    20    17    18    1
    21    17    19   ar
    22    21    19   ar
    23    21     2    1
    24    38    36    1
    25    39    36    1
    26    19    20    1
    27     3     2    1
    28     2    23    1
    29    30    23   ar
    30    30    29   ar
    31    36    29    1
    32    36    37    1
    33    23    24   ar
    34    29    27   ar
    35    24    25    1
    36    24    26   ar
    37    27    28    1
    38    27    26   ar
    39    26    32    1
    40    32    35    1
    41    32    33    1
    42    32    34    1
