@<TRIPOS>MOLECULE
3,4
 38 39 0 0 0
SMALL
GASTEIGER

@<TRIPOS>ATOM
      1 SI          7.1643   11.7557    7.1756 Si      1  UNL1        0.0000
      2 B          11.4242   11.0262    7.6385 B       1  UNL1        0.0000
      3 C           8.9241   11.4657    6.5918 C.3     1  UNL1        0.0000
      4 C          10.0618   11.2594    7.1105 C.3     1  UNL1        0.0000
      5 C           6.5006   13.2287    6.1414 C.3     1  UNL1        0.0000
      6 H           7.0088   14.1496    6.4131 H       1  UNL1        0.0000
      7 H           5.4405   13.3821    6.3171 H       1  UNL1        0.0000
      8 H           6.6379   13.0783    5.0727 H       1  UNL1        0.0000
      9 C           7.1110   12.1922    9.0307 C.3     1  UNL1        0.0000
     10 H           7.3897   11.3387    9.6404 H       1  UNL1        0.0000
     11 H           6.1190   12.5108    9.3369 H       1  UNL1        0.0000
     12 H           7.8057   12.9939    9.2583 H       1  UNL1        0.0000
     13 C           6.1260   10.1781    6.8563 C.3     1  UNL1        0.0000
     14 H           6.0387    9.9389    5.8014 H       1  UNL1        0.0000
     15 H           5.1206   10.2991    7.2473 H       1  UNL1        0.0000
     16 H           6.5663    9.3183    7.3524 H       1  UNL1        0.0000
     17 C          12.2763   12.2370    8.1256 C.ar    1  UNL1        0.0000
     18 F          10.3529   13.4980    8.6844 F       1  UNL1        0.0000
     19 C          11.6993   13.4092    8.6342 C.ar    1  UNL1        0.0000
     20 F          11.8202   15.5834    9.5578 F       1  UNL1        0.0000
     21 C          12.4362   14.4947    9.0722 C.ar    1  UNL1        0.0000
     22 F          14.5577   15.5038    9.4236 F       1  UNL1        0.0000
     23 C          13.8279   14.4611    9.0035 C.ar    1  UNL1        0.0000
     24 F          15.7801   13.3095    8.3159 F       1  UNL1        0.0000
     25 C          14.4451   13.3375    8.4591 C.ar    1  UNL1        0.0000
     26 F          14.3109   11.2462    7.4173 F       1  UNL1        0.0000
     27 C          13.6748   12.2703    8.0356 C.ar    1  UNL1        0.0000
     28 C          11.9445    9.5748    7.7376 C.ar    1  UNL1        0.0000
     29 F          13.3506    9.9276    9.6200 F       1  UNL1        0.0000
     30 C          12.8661    9.0872    8.6896 C.ar    1  UNL1        0.0000
     31 F          14.1602    7.3678    9.6642 F       1  UNL1        0.0000
     32 C          13.2795    7.7701    8.7372 C.ar    1  UNL1        0.0000
     33 F          13.2014    5.5603    7.8445 F       1  UNL1        0.0000
     34 C          12.7843    6.8367    7.8203 C.ar    1  UNL1        0.0000
     35 F          11.3751    6.4103    5.9521 F       1  UNL1        0.0000
     36 C          11.8558    7.2646    6.8739 C.ar    1  UNL1        0.0000
     37 F          10.5612    8.9875    5.8896 F       1  UNL1        0.0000
     38 C          11.4605    8.5840    6.8699 C.ar    1  UNL1        0.0000
@<TRIPOS>BOND
     1     8     5    1
     2    14    13    1
     3    37    38    1
     4    35    36    1
     5     5     7    1
     6     5     6    1
     7     5     1    1
     8     3     4    1
     9     3     1    1
    10    13     1    1
    11    13    15    1
    12    13    16    1
    13    38    36   ar
    14    38    28   ar
    15    36    34   ar
    16     4     2    1
    17     1     9    1
    18    26    27    1
    19     2    28    1
    20     2    17    1
    21    28    30   ar
    22    34    33    1
    23    34    32   ar
    24    27    17   ar
    25    27    25   ar
    26    17    19   ar
    27    24    25    1
    28    25    23   ar
    29    19    18    1
    30    19    21   ar
    31    30    32   ar
    32    30    29    1
    33    32    31    1
    34    23    21   ar
    35    23    22    1
    36     9    12    1
    37     9    11    1
    38     9    10    1
    39    21    20    1
