@<TRIPOS>MOLECULE
1,9
 10 10 0 0 0
SMALL
GASTEIGER

@<TRIPOS>ATOM
      1 C           4.0027   14.5500    1.8624 C.2     1  UNL1       -0.0763
      2 H           3.1373   14.0519    1.4294 H       1  UNL1        0.0578
      3 C           5.2167   14.7399    1.1898 C.2     1  UNL1       -0.0654
      4 H           5.5073   14.2786    0.2601 H       1  UNL1        0.0615
      5 C           5.9610   15.7091    1.8691 C.2     1  UNL1       -0.0654
      6 H           6.9362   16.0615    1.5812 H       1  UNL1        0.0615
      7 C           5.2186   16.1537    2.9563 C.2     1  UNL1       -0.0763
      8 H           5.5118   16.9299    3.6453 H       1  UNL1        0.0578
      9 C           3.9955   15.4447    2.9929 C.3     1  UNL1        0.0054
     10 H           3.1048   15.8289    3.4775 H       1  UNL1        0.0394
@<TRIPOS>BOND
     1     4     3    1
     2     3     1    2
     3     3     5    1
     4     2     1    1
     5     6     5    1
     6     1     9    1
     7     5     7    2
     8     7     9    1
     9     7     8    1
    10     9    10    1
