@<TRIPOS>MOLECULE
1,2
 38 39 0 0 0
SMALL
GASTEIGER

@<TRIPOS>ATOM
      1 C           3.0514    4.0835    6.5745 C.3     1  UNL1        0.0000
      2 C           4.1980    4.2956    7.0594 C.3     1  UNL1        0.0000
      3 SI          1.2859    3.7714    7.1238 Si      1  UNL1        0.0000
      4 C           0.2455    5.3494    6.8174 C.3     1  UNL1        0.0000
      5 H           0.1790    5.6112    5.7661 H       1  UNL1        0.0000
      6 H           0.6698    6.2009    7.3411 H       1  UNL1        0.0000
      7 H          -0.7673    5.2139    7.1841 H       1  UNL1        0.0000
      8 C           0.6474    2.3167    6.0487 C.3     1  UNL1        0.0000
      9 H           0.7992    2.4896    4.9851 H       1  UNL1        0.0000
     10 H          -0.4144    2.1543    6.2048 H       1  UNL1        0.0000
     11 H           1.1558    1.3928    6.3091 H       1  UNL1        0.0000
     12 C           1.2145    3.2959    8.9680 C.3     1  UNL1        0.0000
     13 H           1.4852    4.1363    9.5990 H       1  UNL1        0.0000
     14 H           1.9078    2.4903    9.1852 H       1  UNL1        0.0000
     15 H           0.2200    2.9693    9.2566 H       1  UNL1        0.0000
     16 B           5.5972    4.5131    7.5114 B       1  UNL1        0.0000
     17 C           6.4245    3.2894    8.0141 C.ar    1  UNL1        0.0000
     18 C           7.8234    3.2306    7.9529 C.ar    1  UNL1        0.0000
     19 F           8.4878    4.2402    7.3466 F       1  UNL1        0.0000
     20 C           8.5671    2.1537    8.4003 C.ar    1  UNL1        0.0000
     21 F           9.9045    2.1596    8.2867 F       1  UNL1        0.0000
     22 C           7.9204    1.0452    8.9405 C.ar    1  UNL1        0.0000
     23 F           8.6234   -0.0066    9.3819 F       1  UNL1        0.0000
     24 C           6.5277    1.0373    8.9840 C.ar    1  UNL1        0.0000
     25 F           5.8820   -0.0352    9.4666 F       1  UNL1        0.0000
     26 C           5.8184    2.1324    8.5240 C.ar    1  UNL1        0.0000
     27 F           4.4698    2.0644    8.5517 F       1  UNL1        0.0000
     28 C           6.1128    5.9653    7.6566 C.ar    1  UNL1        0.0000
     29 C           7.0478    6.4268    8.6071 C.ar    1  UNL1        0.0000
     30 F           7.5590    5.5618    9.5001 F       1  UNL1        0.0000
     31 C           7.4473    7.7474    8.6966 C.ar    1  UNL1        0.0000
     32 F           8.3442    8.1216    9.6191 F       1  UNL1        0.0000
     33 C           6.9169    8.7098    7.8334 C.ar    1  UNL1        0.0000
     34 F           7.3139    9.9902    7.9021 F       1  UNL1        0.0000
     35 C           5.9657    8.3090    6.8964 C.ar    1  UNL1        0.0000
     36 F           5.4401    9.1962    6.0339 F       1  UNL1        0.0000
     37 C           5.5909    6.9850    6.8474 C.ar    1  UNL1        0.0000
     38 F           4.6708    6.6040    5.8803 F       1  UNL1        0.0000
@<TRIPOS>BOND
     1     9     8    1
     2     5     4    1
     3    38    37    1
     4    36    35    1
     5     8    10    1
     6     8    11    1
     7     8     3    1
     8     1     2    1
     9     1     3    1
    10     4     3    1
    11     4     7    1
    12     4     6    1
    13    37    35   ar
    14    37    28   ar
    15    35    33   ar
    16     2    16    1
    17     3    12    1
    18    19    18    1
    19    16    28    1
    20    16    17    1
    21    28    29   ar
    22    33    34    1
    23    33    31   ar
    24    18    17   ar
    25    18    20   ar
    26    17    26   ar
    27    21    20    1
    28    20    22   ar
    29    26    27    1
    30    26    24   ar
    31    29    31   ar
    32    29    30    1
    33    31    32    1
    34    22    24   ar
    35    22    23    1
    36    12    14    1
    37    12    15    1
    38    12    13    1
    39    24    25    1
