@<TRIPOS>MOLECULE
1,5
 25 25 0 0 0
SMALL
GASTEIGER

@<TRIPOS>ATOM
      1 C           6.8685    2.9971    0.2173 C.3     1  UNL1        0.0231
      2 C           6.8677    3.1707   -1.2032 C.2     1  UNL1       -0.0584
      3 C           6.3586    4.4418   -1.4926 C.2     1  UNL1       -0.0477
      4 C           6.0710    5.1079   -0.2786 C.2     1  UNL1       -0.0477
      5 C           6.3714    4.2437    0.7918 C.2     1  UNL1       -0.0584
      6 C           7.7791    2.0260    0.9341 C.3     1  UNL1       -0.0510
      7 C           7.4646    2.1960   -2.1758 C.3     1  UNL1       -0.0424
      8 C           6.1681    5.0264   -2.8586 C.3     1  UNL1       -0.0395
      9 C           5.5685    6.5177   -0.1798 C.3     1  UNL1       -0.0395
     10 C           6.5218    4.6318    2.2433 C.3     1  UNL1       -0.0424
     11 H           7.5112    1.9216    1.9835 H       1  UNL1        0.0242
     12 H           8.8096    2.3902    0.8848 H       1  UNL1        0.0242
     13 H           7.7561    1.0391    0.4698 H       1  UNL1        0.0242
     14 H           7.1300    2.4024   -3.1899 H       1  UNL1        0.0275
     15 H           7.2041    1.1656   -1.9273 H       1  UNL1        0.0275
     16 H           8.5544    2.2742   -2.1645 H       1  UNL1        0.0275
     17 H           5.4246    5.8204   -2.8375 H       1  UNL1        0.0278
     18 H           5.8386    4.2675   -3.5680 H       1  UNL1        0.0278
     19 H           7.1018    5.4505   -3.2334 H       1  UNL1        0.0278
     20 H           5.4703    6.8265    0.8585 H       1  UNL1        0.0278
     21 H           4.5969    6.6319   -0.6659 H       1  UNL1        0.0278
     22 H           6.2657    7.1995   -0.6680 H       1  UNL1        0.0278
     23 H           6.4947    3.7578    2.8941 H       1  UNL1        0.0275
     24 H           5.7401    5.3229    2.5630 H       1  UNL1        0.0275
     25 H           7.4829    5.1307    2.3945 H       1  UNL1        0.0275
@<TRIPOS>BOND
     1    18     8    1
     2    19     8    1
     3    14     7    1
     4     8    17    1
     5     8     3    1
     6     7    16    1
     7     7    15    1
     8     7     2    1
     9     3     2    2
    10     3     4    1
    11     2     1    1
    12    22     9    1
    13    21     9    1
    14     4     9    1
    15     4     5    2
    16     9    20    1
    17     1     5    1
    18     1     6    1
    19    13     6    1
    20     5    10    1
    21    12     6    1
    22     6    11    1
    23    10    25    1
    24    10    24    1
    25    10    23    1
