@<TRIPOS>MOLECULE
1,5
 25 25 0 0 0
SMALL
GASTEIGER

@<TRIPOS>ATOM
      1 C           0.9914    4.6882    7.3140 C.3     1  UNL1       -0.0053
      2 C           2.4100    4.7341    7.3467 C.3     1  UNL1        0.0052
      3 C           2.9032    3.4185    7.3971 C.2     1  UNL1       -0.0658
      4 C           1.8197    2.5253    7.4172 C.2     1  UNL1       -0.0658
      5 C           0.6046    3.2728    7.3745 C.3     1  UNL1        0.0052
      6 C           0.1107    5.8139    7.8138 C.3     1  UNL1       -0.0574
      7 C           3.2032    6.0035    7.4310 C.3     1  UNL1       -0.0545
      8 C           4.3349    2.9968    7.5238 C.3     1  UNL1       -0.0430
      9 C           1.9370    1.0374    7.5645 C.3     1  UNL1       -0.0430
     10 C          -0.6998    2.8133    7.9950 C.3     1  UNL1       -0.0545
     11 H           0.1542    5.8436    8.9068 H       1  UNL1        0.0236
     12 H           0.4545    6.7817    7.4489 H       1  UNL1        0.0236
     13 H          -0.9303    5.6803    7.5224 H       1  UNL1        0.0236
     14 H           4.2433    5.8423    7.1595 H       1  UNL1        0.0239
     15 H           3.1814    6.3942    8.4506 H       1  UNL1        0.0239
     16 H           2.7908    6.7699    6.7737 H       1  UNL1        0.0239
     17 H           5.0132    3.8289    7.3525 H       1  UNL1        0.0275
     18 H           4.5814    2.1972    6.8237 H       1  UNL1        0.0275
     19 H           4.5228    2.6147    8.5287 H       1  UNL1        0.0275
     20 H           2.7341    0.6411    6.9355 H       1  UNL1        0.0275
     21 H           2.1771    0.7785    8.5981 H       1  UNL1        0.0275
     22 H           1.0081    0.5363    7.2983 H       1  UNL1        0.0275
     23 H          -0.8291    1.7385    7.8862 H       1  UNL1        0.0239
     24 H          -0.6817    3.0381    9.0654 H       1  UNL1        0.0239
     25 H          -1.5649    3.3092    7.5548 H       1  UNL1        0.0239
@<TRIPOS>BOND
     1    16     7    1
     2    18     8    1
     3    20     9    1
     4    14     7    1
     5    22     9    1
     6     1     2    1
     7     1     5    1
     8     1     6    1
     9     2     3    1
    10     2     7    1
    11    17     8    1
    12     5     4    1
    13     5    10    1
    14     3     4    2
    15     3     8    1
    16     4     9    1
    17     7    15    1
    18    12     6    1
    19    13     6    1
    20     8    19    1
    21    25    10    1
    22     9    21    1
    23     6    11    1
    24    23    10    1
    25    10    24    1
