@<TRIPOS>MOLECULE
5,6
 42 41 0 0 0
SMALL
GASTEIGER

@<TRIPOS>ATOM
      1 S           5.8903   16.5862   17.3453 S.3     1  UNL1        0.0000
      2 S           2.7944   18.4793   16.1412 S.3     1  UNL1        0.0000
      3 SI          8.1622   13.3946   19.6408 Si      1  UNL1        0.0000
      4 SI          6.7958   20.5761   15.5236 Si      1  UNL1        0.0000
      5 C           4.4400   17.1199   18.0483 C.3     1  UNL1        0.0000
      6 C           3.3305   17.6910   17.5509 C.3     1  UNL1        0.0000
      7 C           6.6410   15.6265   18.7312 C.3     1  UNL1        0.0000
      8 H           7.2318   16.3251   19.3206 H       1  UNL1        0.0000
      9 H           5.8020   15.2582   19.3197 H       1  UNL1        0.0000
     10 C           7.4889   14.4954   18.2078 C.3     1  UNL1        0.0000
     11 H           8.3154   14.9016   17.6255 H       1  UNL1        0.0000
     12 H           6.8954   13.8832   17.5278 H       1  UNL1        0.0000
     13 C           9.0826   14.5029   20.8889 C.3     1  UNL1        0.0000
     14 H           9.5298   13.9066   21.6780 H       1  UNL1        0.0000
     15 H           8.4190   15.2219   21.3607 H       1  UNL1        0.0000
     16 H           9.8853   15.0564   20.4108 H       1  UNL1        0.0000
     17 C           9.3011   12.0728   18.8929 C.3     1  UNL1        0.0000
     18 H           8.7829   11.4637   18.1587 H       1  UNL1        0.0000
     19 H           9.6776   11.4066   19.6621 H       1  UNL1        0.0000
     20 H          10.1595   12.5193   18.4009 H       1  UNL1        0.0000
     21 C           6.6426   12.6038   20.4850 C.3     1  UNL1        0.0000
     22 H           5.9785   13.3579   20.8981 H       1  UNL1        0.0000
     23 H           6.9456   11.9491   21.2960 H       1  UNL1        0.0000
     24 H           6.0664   12.0067   19.7844 H       1  UNL1        0.0000
     25 C           4.4071   18.9836   15.3937 C.3     1  UNL1        0.0000
     26 H           5.0222   18.0880   15.3375 H       1  UNL1        0.0000
     27 H           4.1491   19.3151   14.3910 H       1  UNL1        0.0000
     28 C           5.0534   20.0810   16.1970 C.3     1  UNL1        0.0000
     29 H           5.1487   19.7584   17.2363 H       1  UNL1        0.0000
     30 H           4.4001   20.9528   16.2009 H       1  UNL1        0.0000
     31 C           8.0305   19.2229   16.0581 C.3     1  UNL1        0.0000
     32 H           8.0732   19.1224   17.1389 H       1  UNL1        0.0000
     33 H           9.0321   19.4625   15.7160 H       1  UNL1        0.0000
     34 H           7.7707   18.2521   15.6467 H       1  UNL1        0.0000
     35 C           7.2371   22.2465   16.3207 C.3     1  UNL1        0.0000
     36 H           8.2395   22.5547   16.0420 H       1  UNL1        0.0000
     37 H           7.1985   22.2021   17.4050 H       1  UNL1        0.0000
     38 H           6.5568   23.0300   16.0011 H       1  UNL1        0.0000
     39 C           6.7150   20.7021   13.6272 C.3     1  UNL1        0.0000
     40 H           7.6456   21.0927   13.2279 H       1  UNL1        0.0000
     41 H           5.9208   21.3682   13.3032 H       1  UNL1        0.0000
     42 H           6.5454   19.7346   13.1636 H       1  UNL1        0.0000
@<TRIPOS>BOND
     1    42    39    1
     2    40    39    1
     3    41    39    1
     4    39     4    1
     5    27    25    1
     6    26    25    1
     7    25     2    1
     8    25    28    1
     9     4    31    1
    10     4    28    1
    11     4    35    1
    12    34    31    1
    13    33    31    1
    14    38    35    1
    15    36    35    1
    16    31    32    1
    17     2     6    1
    18    28    30    1
    19    28    29    1
    20    35    37    1
    21     1     5    1
    22     1     7    1
    23    12    10    1
    24     6     5    1
    25    11    10    1
    26    18    17    1
    27    10     7    1
    28    10     3    1
    29    20    17    1
    30     7     9    1
    31     7     8    1
    32    17     3    1
    33    17    19    1
    34     3    21    1
    35     3    13    1
    36    24    21    1
    37    16    13    1
    38    21    22    1
    39    21    23    1
    40    13    15    1
    41    13    14    1
