@<TRIPOS>MOLECULE
3,6
 46 46 0 0 0
SMALL
GASTEIGER

@<TRIPOS>ATOM
      1 C           5.9175    0.9064    6.7010 C.3     1  UNL1       -0.0068
      2 C           5.7317   -0.5019    6.8266 C.3     1  UNL1       -0.0068
      3 C           4.5191   -0.8229    6.1304 C.3     1  UNL1       -0.0229
      4 H           4.0583   -1.7900    6.1155 H       1  UNL1        0.0315
      5 C           3.9944    0.3096    5.5150 C.3     1  UNL1       -0.0104
      6 C           4.9032    1.3516    5.8159 C.3     1  UNL1       -0.0229
      7 H           4.7777    2.3572    5.4788 H       1  UNL1        0.0315
      8 C           6.7263    1.9057    7.5123 C.3     1  UNL1       -0.0307
      9 C           6.5566    1.6155    9.0123 C.3     1  UNL1       -0.0595
     10 H           5.5004    1.5276    9.2571 H       1  UNL1        0.0235
     11 H           6.9741    2.4354    9.5937 H       1  UNL1        0.0235
     12 H           7.0614    0.7093    9.3176 H       1  UNL1        0.0235
     13 C           6.1682    3.3263    7.3236 C.3     1  UNL1       -0.0595
     14 H           6.3212    3.6862    6.3150 H       1  UNL1        0.0235
     15 H           6.6874    4.0073    7.9953 H       1  UNL1        0.0235
     16 H           5.1086    3.3624    7.5647 H       1  UNL1        0.0235
     17 C           8.2076    1.9509    7.1394 C.3     1  UNL1       -0.0595
     18 H           8.7074    1.0165    7.3554 H       1  UNL1        0.0235
     19 H           8.7040    2.7380    7.7039 H       1  UNL1        0.0235
     20 H           8.3057    2.1599    6.0813 H       1  UNL1        0.0235
     21 C           6.4027   -1.6051    7.6124 C.3     1  UNL1       -0.0307
     22 C           5.6862   -1.7954    8.9590 C.3     1  UNL1       -0.0595
     23 H           6.1182   -2.6403    9.4916 H       1  UNL1        0.0235
     24 H           4.6300   -1.9961    8.7944 H       1  UNL1        0.0235
     25 H           5.7652   -0.9164    9.5888 H       1  UNL1        0.0235
     26 C           7.9007   -1.3916    7.8120 C.3     1  UNL1       -0.0595
     27 H           8.1195   -0.6063    8.5237 H       1  UNL1        0.0235
     28 H           8.3461   -1.1484    6.8539 H       1  UNL1        0.0235
     29 H           8.3577   -2.3038    8.1910 H       1  UNL1        0.0235
     30 C           6.2705   -2.9175    6.8276 C.3     1  UNL1       -0.0595
     31 H           6.8675   -3.6930    7.3019 H       1  UNL1        0.0235
     32 H           6.6300   -2.7617    5.8211 H       1  UNL1        0.0235
     33 H           5.2478   -3.2786    6.7969 H       1  UNL1        0.0235
     34 C           2.7204    0.3595    4.7274 C.3     1  UNL1       -0.0310
     35 C           1.5460    0.0834    5.6774 C.3     1  UNL1       -0.0595
     36 H           1.6359   -0.9060    6.1188 H       1  UNL1        0.0235
     37 H           0.6007    0.1378    5.1417 H       1  UNL1        0.0235
     38 H           1.5308    0.8156    6.4817 H       1  UNL1        0.0235
     39 C           2.5324    1.7297    4.0773 C.3     1  UNL1       -0.0595
     40 H           2.4298    2.5024    4.8354 H       1  UNL1        0.0235
     41 H           1.6342    1.7344    3.4637 H       1  UNL1        0.0235
     42 H           3.3826    1.9703    3.4463 H       1  UNL1        0.0235
     43 C           2.7664   -0.7217    3.6433 C.3     1  UNL1       -0.0595
     44 H           3.5529   -0.5021    2.9293 H       1  UNL1        0.0235
     45 H           1.8184   -0.7709    3.1122 H       1  UNL1        0.0235
     46 H           2.9665   -1.6958    4.0794 H       1  UNL1        0.0235
@<TRIPOS>BOND
     1    44    43    1
     2    45    43    1
     3    42    39    1
     4    41    39    1
     5    43    46    1
     6    43    34    1
     7    39    34    1
     8    39    40    1
     9    34     5    1
    10    34    35    1
    11    37    35    1
    12     7     6    1
    13     5     6    1
    14     5     3    1
    15    35    36    1
    16    35    38    1
    17     6     1    1
    18    32    30    1
    19    20    17    1
    20     4     3    1
    21     3     2    1
    22    14    13    1
    23     1     2    1
    24     1     8    1
    25    33    30    1
    26     2    21    1
    27    30    31    1
    28    30    21    1
    29    28    26    1
    30    17    18    1
    31    17     8    1
    32    17    19    1
    33    13     8    1
    34    13    16    1
    35    13    15    1
    36     8     9    1
    37    21    26    1
    38    21    22    1
    39    26    29    1
    40    26    27    1
    41    24    22    1
    42    22    23    1
    43    22    25    1
    44     9    10    1
    45     9    12    1
    46     9    11    1
