@<TRIPOS>MOLECULE
3,31
 56 56 0 0 0
SMALL
GASTEIGER

@<TRIPOS>ATOM
      1 SI         -0.6628   14.8933    3.1769 Si      1  UNL1        0.0000
      2 O           0.3397   11.9983    1.8549 O.2     1  UNL1        0.0000
      3 C          -0.5123   11.8993    2.9677 C.2     1  UNL1        0.0000
      4 C          -0.8417   13.0461    3.5937 C.2     1  UNL1        0.0000
      5 C           0.2984   10.9212    0.9547 C.3     1  UNL1        0.0000
      6 C          -1.6634   15.1646    1.5445 C.3     1  UNL1        0.0000
      7 C           1.1522   15.5213    3.0015 C.3     1  UNL1        0.0000
      8 C          -2.9936   14.4212    1.6234 C.3     1  UNL1        0.0000
      9 C          -1.8999   16.6333    1.2118 C.3     1  UNL1        0.0000
     10 C           1.7320   15.1978    1.6285 C.3     1  UNL1        0.0000
     11 C           1.2781   17.0106    3.3011 C.3     1  UNL1        0.0000
     12 H           0.1676    9.9569    1.4807 H       1  UNL1        0.0000
     13 H          -0.5197   11.0466    0.2315 H       1  UNL1        0.0000
     14 H           1.2457   10.9163    0.4115 H       1  UNL1        0.0000
     15 H          -3.6313   14.8650    2.3840 H       1  UNL1        0.0000
     16 H          -3.5200   14.4643    0.6700 H       1  UNL1        0.0000
     17 H          -2.8312   13.3770    1.8880 H       1  UNL1        0.0000
     18 H          -2.4519   17.1242    2.0104 H       1  UNL1        0.0000
     19 H          -0.9584   17.1593    1.0761 H       1  UNL1        0.0000
     20 H          -2.4767   16.7336    0.2920 H       1  UNL1        0.0000
     21 H           1.6249   14.1369    1.4189 H       1  UNL1        0.0000
     22 H           1.2171   15.7593    0.8522 H       1  UNL1        0.0000
     23 H           2.7901   15.4573    1.5858 H       1  UNL1        0.0000
     24 H           0.8983   17.2381    4.2943 H       1  UNL1        0.0000
     25 H           2.3198   17.3283    3.2519 H       1  UNL1        0.0000
     26 H           0.7142   17.5990    2.5816 H       1  UNL1        0.0000
     27 H          -1.0894   14.7225    0.7239 H       1  UNL1        0.0000
     28 H           1.7492   14.9818    3.7433 H       1  UNL1        0.0000
     29 SI         -1.8291   14.8932    5.2463 Si      1  UNL1        0.0000
     30 C          -1.6501   13.0461    4.8295 C.2     1  UNL1        0.0000
     31 C          -1.9795   11.8993    5.4554 C.2     1  UNL1        0.0000
     32 O          -2.8315   11.9983    6.5682 O.2     1  UNL1        0.0000
     33 C          -2.7902   10.9211    7.4684 C.3     1  UNL1        0.0000
     34 H          -2.6595    9.9569    6.9425 H       1  UNL1        0.0000
     35 H          -1.9721   11.0466    8.1916 H       1  UNL1        0.0000
     36 H          -3.7375   10.9162    8.0117 H       1  UNL1        0.0000
     37 C          -0.8285   15.1645    6.8786 C.3     1  UNL1        0.0000
     38 C           0.5017   14.4211    6.7997 C.3     1  UNL1        0.0000
     39 H           1.1394   14.8650    6.0392 H       1  UNL1        0.0000
     40 H           1.0282   14.4642    7.7531 H       1  UNL1        0.0000
     41 H           0.3394   13.3770    6.5351 H       1  UNL1        0.0000
     42 C          -0.5919   16.6333    7.2114 C.3     1  UNL1        0.0000
     43 H          -0.0400   17.1242    6.4128 H       1  UNL1        0.0000
     44 H          -1.5334   17.1592    7.3471 H       1  UNL1        0.0000
     45 H          -0.0151   16.7336    8.1311 H       1  UNL1        0.0000
     46 H          -1.4025   14.7225    7.6992 H       1  UNL1        0.0000
     47 C          -3.6441   15.5213    5.4216 C.3     1  UNL1        0.0000
     48 C          -4.2239   15.1978    6.7946 C.3     1  UNL1        0.0000
     49 H          -4.1168   14.1369    7.0042 H       1  UNL1        0.0000
     50 H          -3.7090   15.7593    7.5709 H       1  UNL1        0.0000
     51 H          -5.2820   15.4573    6.8374 H       1  UNL1        0.0000
     52 C          -3.7700   17.0106    5.1221 C.3     1  UNL1        0.0000
     53 H          -3.3902   17.2381    4.1289 H       1  UNL1        0.0000
     54 H          -4.8116   17.3283    5.1713 H       1  UNL1        0.0000
     55 H          -3.2060   17.5990    5.8415 H       1  UNL1        0.0000
     56 H          -4.2410   14.9818    4.6799 H       1  UNL1        0.0000
@<TRIPOS>BOND
     1    13     5    1
     2    20     9    1
     3    14     5    1
     4    16     8    1
     5    27     6    1
     6    22    10    1
     7     5    12    1
     8     5     2    1
     9    19     9    1
    10     9     6    1
    11     9    18    1
    12    21    10    1
    13     6     8    1
    14     6     1    1
    15    23    10    1
    16     8    17    1
    17     8    15    1
    18    10     7    1
    19     2     3    1
    20    26    11    1
    21     3     4    2
    22     7     1    1
    23     7    11    1
    24     7    28    1
    25     1     4    1
    26     1    29    1
    27    25    11    1
    28    11    24    1
    29     4    30    1
    30    53    52    1
    31    56    47    1
    32    30    29    1
    33    30    31    2
    34    52    54    1
    35    52    47    1
    36    52    55    1
    37    29    47    1
    38    29    37    1
    39    47    48    1
    40    31    32    1
    41    39    38    1
    42    43    42    1
    43    41    38    1
    44    32    33    1
    45    48    51    1
    46    48    49    1
    47    48    50    1
    48    38    37    1
    49    38    40    1
    50    37    42    1
    51    37    46    1
    52    34    33    1
    53    42    44    1
    54    42    45    1
    55    33    36    1
    56    33    35    1
