@<TRIPOS>MOLECULE
2,5
 18 17 0 0 0
SMALL
GASTEIGER

@<TRIPOS>ATOM
      1 SI         11.4968    1.8877   10.0998 Si      1  UNL1        0.0000
      2 C          11.7544    0.1164   12.2600 C.3     1  UNL1        0.0000
      3 H          12.6603   -0.1445   11.7275 H       1  UNL1        0.0000
      4 H          11.3080   -0.7294   12.7702 H       1  UNL1        0.0000
      5 C          10.9059    1.0857   11.6799 C.3     1  UNL1        0.0000
      6 H           9.8442    0.9753   11.8600 H       1  UNL1        0.0000
      7 C          10.3429    3.2212    9.3741 C.3     1  UNL1        0.0000
      8 H           9.4236    2.7750    9.0107 H       1  UNL1        0.0000
      9 H          10.8117    3.7288    8.5367 H       1  UNL1        0.0000
     10 H          10.0747    3.9686   10.1109 H       1  UNL1        0.0000
     11 C          11.8317    0.6236    8.6969 C.3     1  UNL1        0.0000
     12 H          12.4807   -0.1772    9.0361 H       1  UNL1        0.0000
     13 H          12.3084    1.0931    7.8413 H       1  UNL1        0.0000
     14 H          10.9088    0.1704    8.3502 H       1  UNL1        0.0000
     15 C          13.1873    2.6431   10.6065 C.3     1  UNL1        0.0000
     16 H          13.3115    2.5402   11.6948 H       1  UNL1        0.0000
     17 H          13.2618    3.6966   10.3590 H       1  UNL1        0.0000
     18 H          14.0247    2.1377   10.1372 H       1  UNL1        0.0000
@<TRIPOS>BOND
     1    13    11    1
     2    14    11    1
     3     9     7    1
     4    11    12    1
     5    11     1    1
     6     8     7    1
     7     7     1    1
     8     7    10    1
     9     1    15    1
    10     1     5    1
    11    18    15    1
    12    17    15    1
    13    15    16    1
    14     5     6    1
    15     5     2    1
    16     3     2    1
    17     2     4    1
