@<TRIPOS>MOLECULE
2,5
 18 17 0 0 0
SMALL
GASTEIGER

@<TRIPOS>ATOM
      1 SI          9.2312    3.3386   13.6796 Si      1  UNL1        0.0000
      2 C          12.0046    3.6728   14.0538 C.3     1  UNL1        0.0000
      3 H          11.7285    3.6623   15.0998 H       1  UNL1        0.0000
      4 H          12.8877    4.2708   13.8577 H       1  UNL1        0.0000
      5 C          10.9816    3.6244   13.0914 C.3     1  UNL1        0.0000
      6 H          11.1616    4.1284   12.1513 H       1  UNL1        0.0000
      7 C           9.3198    1.6585   14.6079 C.3     1  UNL1        0.0000
      8 H          10.3417    1.2581   14.5300 H       1  UNL1        0.0000
      9 H           8.6443    0.9194   14.1904 H       1  UNL1        0.0000
     10 H           9.0893    1.7545   15.6640 H       1  UNL1        0.0000
     11 C           8.6285    4.6510   14.9425 C.3     1  UNL1        0.0000
     12 H           9.1991    4.6081   15.8646 H       1  UNL1        0.0000
     13 H           7.5840    4.5005   15.1989 H       1  UNL1        0.0000
     14 H           8.7262    5.6551   14.5423 H       1  UNL1        0.0000
     15 C           7.9317    3.2885   12.2861 C.3     1  UNL1        0.0000
     16 H           7.8071    4.2709   11.8435 H       1  UNL1        0.0000
     17 H           6.9637    2.9766   12.6658 H       1  UNL1        0.0000
     18 H           8.2172    2.6063   11.4949 H       1  UNL1        0.0000
@<TRIPOS>BOND
     1    18    15    1
     2    16    15    1
     3     6     5    1
     4    15    17    1
     5    15     1    1
     6     5     1    1
     7     5     2    1
     8     1     7    1
     9     1    11    1
    10     4     2    1
    11     2     3    1
    12     9     7    1
    13     8     7    1
    14    14    11    1
    15     7    10    1
    16    11    13    1
    17    11    12    1
