@<TRIPOS>MOLECULE
11,13
 74 75 0 0 0
SMALL
GASTEIGER

@<TRIPOS>ATOM
      1 SI          4.2042   -2.3791   -2.1812 Si      1  UNL1        0.0000
      2 SI          2.6759   -1.3376    4.6021 Si      1  UNL1        0.0000
      3 C           5.2987   -1.5323    1.3805 C.2     1  UNL1        0.0000
      4 H           6.3010   -1.5281    0.9915 H       1  UNL1        0.0000
      5 C           4.9798   -1.5116    2.7709 C.3     1  UNL1        0.0000
      6 H           5.7284   -1.4950    3.5409 H       1  UNL1        0.0000
      7 C           3.6132   -1.5142    2.9849 C.2     1  UNL1        0.0000
      8 C           3.0336   -1.5087    1.6695 C.2     1  UNL1        0.0000
      9 C           1.8377   -1.4244    1.0046 C.3     1  UNL1        0.0000
     10 H           0.8495   -1.4018    1.4325 H       1  UNL1        0.0000
     11 C           2.0882   -1.3788   -0.4117 C.3     1  UNL1        0.0000
     12 H           1.3545   -1.7735   -1.1021 H       1  UNL1        0.0000
     13 C           3.5281   -1.4898   -0.6523 C.3     1  UNL1        0.0000
     14 C           4.1133   -1.5417    0.6845 C.2     1  UNL1        0.0000
     15 C           5.6572   -1.3520   -2.9465 C.3     1  UNL1        0.0000
     16 H           5.2083   -0.5576   -3.5538 H       1  UNL1        0.0000
     17 C           6.5297   -0.6644   -1.8967 C.3     1  UNL1        0.0000
     18 H           5.9418   -0.0138   -1.2470 H       1  UNL1        0.0000
     19 H           7.2910   -0.0552   -2.3831 H       1  UNL1        0.0000
     20 H           7.0357   -1.4007   -1.2787 H       1  UNL1        0.0000
     21 C           6.5452   -2.1873   -3.8688 C.3     1  UNL1        0.0000
     22 H           5.9642   -2.6551   -4.6576 H       1  UNL1        0.0000
     23 H           7.0488   -2.9724   -3.3113 H       1  UNL1        0.0000
     24 H           7.3066   -1.5618   -4.3333 H       1  UNL1        0.0000
     25 C           4.7000   -4.1808   -1.6981 C.3     1  UNL1        0.0000
     26 H           4.9972   -4.7036   -2.6126 H       1  UNL1        0.0000
     27 C           3.5086   -4.9259   -1.0961 C.3     1  UNL1        0.0000
     28 H           2.6764   -4.9658   -1.7935 H       1  UNL1        0.0000
     29 H           3.1744   -4.4314   -0.1873 H       1  UNL1        0.0000
     30 H           3.7891   -5.9471   -0.8430 H       1  UNL1        0.0000
     31 C           5.8766   -4.2525   -0.7287 C.3     1  UNL1        0.0000
     32 H           6.7518   -3.7504   -1.1314 H       1  UNL1        0.0000
     33 H           6.1434   -5.2911   -0.5368 H       1  UNL1        0.0000
     34 H           5.6153   -3.7896    0.2183 H       1  UNL1        0.0000
     35 C           2.7559   -2.4946   -3.4651 C.3     1  UNL1        0.0000
     36 H           1.8997   -2.9446   -2.9536 H       1  UNL1        0.0000
     37 C           2.3122   -1.1273   -3.9819 C.3     1  UNL1        0.0000
     38 H           2.0490   -0.4537   -3.1624 H       1  UNL1        0.0000
     39 H           1.4438   -1.2314   -4.6315 H       1  UNL1        0.0000
     40 H           3.1055   -0.6619   -4.5616 H       1  UNL1        0.0000
     41 C           3.0788   -3.3969   -4.6547 C.3     1  UNL1        0.0000
     42 H           3.3893   -4.3839   -4.3251 H       1  UNL1        0.0000
     43 H           3.8742   -2.9681   -5.2578 H       1  UNL1        0.0000
     44 H           2.2032   -3.5122   -5.2926 H       1  UNL1        0.0000
     45 C           2.6220    0.5574    4.9688 C.3     1  UNL1        0.0000
     46 H           2.2234    0.7343    5.9722 H       1  UNL1        0.0000
     47 C           1.7147    1.2813    3.9758 C.3     1  UNL1        0.0000
     48 H           0.6829    0.9568    4.0834 H       1  UNL1        0.0000
     49 H           2.0316    1.0816    2.9529 H       1  UNL1        0.0000
     50 H           1.7504    2.3582    4.1391 H       1  UNL1        0.0000
     51 C           4.0234    1.1592    4.9145 C.3     1  UNL1        0.0000
     52 H           4.6841    0.6762    5.6301 H       1  UNL1        0.0000
     53 H           3.9971    2.2250    5.1406 H       1  UNL1        0.0000
     54 H           4.4491    1.0306    3.9221 H       1  UNL1        0.0000
     55 C           3.4124   -2.3301    6.0899 C.3     1  UNL1        0.0000
     56 H           2.8434   -3.2629    6.1635 H       1  UNL1        0.0000
     57 C           3.2476   -1.5953    7.4195 C.3     1  UNL1        0.0000
     58 H           2.2089   -1.3318    7.5997 H       1  UNL1        0.0000
     59 H           3.8379   -0.6823    7.4291 H       1  UNL1        0.0000
     60 H           3.5865   -2.2226    8.2441 H       1  UNL1        0.0000
     61 C           4.8748   -2.7233    5.9086 C.3     1  UNL1        0.0000
     62 H           5.0095   -3.2931    4.9935 H       1  UNL1        0.0000
     63 H           5.2110   -3.3347    6.7463 H       1  UNL1        0.0000
     64 H           5.5065   -1.8393    5.8658 H       1  UNL1        0.0000
     65 C           0.8735   -1.9771    4.3548 C.3     1  UNL1        0.0000
     66 H           0.3959   -1.3612    3.5885 H       1  UNL1        0.0000
     67 C           0.0297   -1.8497    5.6204 C.3     1  UNL1        0.0000
     68 H           0.0195   -0.8232    5.9797 H       1  UNL1        0.0000
     69 H           0.4222   -2.4872    6.4088 H       1  UNL1        0.0000
     70 H          -1.0000   -2.1519    5.4280 H       1  UNL1        0.0000
     71 C           0.8526   -3.4212    3.8620 C.3     1  UNL1        0.0000
     72 H           1.4249   -3.5237    2.9440 H       1  UNL1        0.0000
     73 H          -0.1689   -3.7505    3.6718 H       1  UNL1        0.0000
     74 H           1.2853   -4.0853    4.6064 H       1  UNL1        0.0000
@<TRIPOS>BOND
     1    44    41    1
     2    43    41    1
     3    22    21    1
     4    41    42    1
     5    41    35    1
     6    39    37    1
     7    40    37    1
     8    24    21    1
     9    37    35    1
    10    37    38    1
    11    21    23    1
    12    21    15    1
    13    16    15    1
    14    35    36    1
    15    35     1    1
    16    15     1    1
    17    15    17    1
    18    26    25    1
    19    19    17    1
    20     1    25    1
    21     1    13    1
    22    17    20    1
    23    17    18    1
    24    28    27    1
    25    25    27    1
    26    25    31    1
    27    32    31    1
    28    12    11    1
    29    27    30    1
    30    27    29    1
    31    31    33    1
    32    31    34    1
    33    13    11    1
    34    13    14    1
    35    11     9    1
    36    14     3    2
    37    14     8    1
    38     4     3    1
    39     9    10    1
    40     9     8    1
    41     3     5    1
    42     8     7    2
    43     5     7    1
    44     5     6    1
    45    72    71    1
    46    49    47    1
    47     7     2    1
    48    66    65    1
    49    73    71    1
    50    71    65    1
    51    71    74    1
    52    54    51    1
    53    47    48    1
    54    47    50    1
    55    47    45    1
    56    65     2    1
    57    65    67    1
    58     2    45    1
    59     2    55    1
    60    51    45    1
    61    51    53    1
    62    51    52    1
    63    45    46    1
    64    62    61    1
    65    70    67    1
    66    67    68    1
    67    67    69    1
    68    64    61    1
    69    61    55    1
    70    61    63    1
    71    55    56    1
    72    55    57    1
    73    57    59    1
    74    57    58    1
    75    57    60    1
