@<TRIPOS>MOLECULE
2,3
 35 36 0 0 0
SMALL
GASTEIGER

@<TRIPOS>ATOM
      1 SI          0.9982   23.1986    5.2682 Si      1  UNL1        0.0000
      2 C           0.1596   26.5293    6.5422 C.3     1  UNL1        0.0000
      3 C           0.0215   25.2328    6.9919 C.2     1  UNL1        0.0000
      4 C           0.1683   23.9433    6.8217 C.2     1  UNL1        0.0000
      5 C          -0.2913   22.9735    7.8366 C.ar    1  UNL1        0.0000
      6 C          -1.4932   22.3313    7.6785 C.ar    1  UNL1        0.0000
      7 C          -1.9617   21.4322    8.6456 C.ar    1  UNL1        0.0000
      8 C          -1.2245   21.1800    9.7681 C.ar    1  UNL1        0.0000
      9 C           0.0172   21.8174    9.9687 C.ar    1  UNL1        0.0000
     10 C           0.7914   21.5898   11.1257 C.ar    1  UNL1        0.0000
     11 C           1.9852   22.2285   11.3076 C.ar    1  UNL1        0.0000
     12 C           2.4651   23.1178   10.3340 C.ar    1  UNL1        0.0000
     13 C           1.7409   23.3574    9.2003 C.ar    1  UNL1        0.0000
     14 C           0.4985   22.7239    8.9882 C.ar    1  UNL1        0.0000
     15 C           1.8839   24.5808    4.3039 C.3     1  UNL1        0.0000
     16 C           2.2372   21.8804    5.8700 C.3     1  UNL1        0.0000
     17 C          -0.3474   22.3866    4.1868 C.3     1  UNL1        0.0000
     18 H          -2.0946   22.5373    6.8048 H       1  UNL1        0.0000
     19 H          -2.9162   20.9483    8.4974 H       1  UNL1        0.0000
     20 H          -1.5847   20.4948   10.5220 H       1  UNL1        0.0000
     21 H           0.4172   20.9010   11.8699 H       1  UNL1        0.0000
     22 H           2.5684   22.0529   12.1998 H       1  UNL1        0.0000
     23 H           3.4124   23.6135   10.4890 H       1  UNL1        0.0000
     24 H           2.1099   24.0385    8.4468 H       1  UNL1        0.0000
     25 H           2.3839   24.1804    3.4278 H       1  UNL1        0.0000
     26 H           2.6347   25.0735    4.9134 H       1  UNL1        0.0000
     27 H           1.1850   25.3389    3.9661 H       1  UNL1        0.0000
     28 H           2.6805   21.3465    5.0351 H       1  UNL1        0.0000
     29 H           3.0459   22.3226    6.4441 H       1  UNL1        0.0000
     30 H           1.7487   21.1495    6.5078 H       1  UNL1        0.0000
     31 H           0.0763   21.9997    3.2651 H       1  UNL1        0.0000
     32 H          -1.1250   23.0958    3.9184 H       1  UNL1        0.0000
     33 H          -0.8195   21.5566    4.7036 H       1  UNL1        0.0000
     34 H           1.1468   26.9834    6.5305 H       1  UNL1        0.0000
     35 H          -0.4793   26.8819    5.7369 H       1  UNL1        0.0000
@<TRIPOS>BOND
     1    31    17    1
     2    25    15    1
     3    32    17    1
     4    27    15    1
     5    17    33    1
     6    17     1    1
     7    15    26    1
     8    15     1    1
     9    28    16    1
    10     1    16    1
    11     1     4    1
    12    35     2    1
    13    16    29    1
    14    16    30    1
    15    34     2    1
    16     2     3    1
    17    18     6    1
    18     4     3    2
    19     4     5    1
    20     6     5   ar
    21     6     7   ar
    22     5    14   ar
    23    24    13    1
    24    19     7    1
    25     7     8   ar
    26    14    13   ar
    27    14     9   ar
    28    13    12   ar
    29     8     9   ar
    30     8    20    1
    31     9    10   ar
    32    12    23    1
    33    12    11   ar
    34    10    11   ar
    35    10    21    1
    36    11    22    1
