@<TRIPOS>MOLECULE
1,2
 6 5 0 0 0
SMALL
GASTEIGER

@<TRIPOS>ATOM
      1 C          13.9977    3.2048    3.6897 C.3     1  UNL1       -0.0531
      2 C          13.5369    3.2047    2.3296 C.3     1  UNL1       -0.0531
      3 H          14.5067    2.3055    4.0341 H       1  UNL1        0.0265
      4 H          13.7515    2.3062    1.7519 H       1  UNL1        0.0265
      5 H          14.5067    4.1040    4.0340 H       1  UNL1        0.0265
      6 H          13.7514    4.1032    1.7519 H       1  UNL1        0.0265
@<TRIPOS>BOND
     1     6     2    1
     2     4     2    1
     3     2     1    1
     4     1     5    1
     5     1     3    1
