@<TRIPOS>MOLECULE
3,16
 30 29 0 0 0
SMALL
GASTEIGER

@<TRIPOS>ATOM
      1 SI          4.3542   -1.6722    2.2667 Si      1  UNL1        0.0000
      2 O           5.0934   -0.6352    1.2604 O.2     1  UNL1        0.0000
      3 C           4.5223    0.3856    0.5254 C.2     1  UNL1        0.0000
      4 C           2.9192   -2.6547    1.4736 C.3     1  UNL1        0.0000
      5 C           5.7625   -2.8281    2.8122 C.3     1  UNL1        0.0000
      6 C           3.6572   -0.7088    3.7734 C.3     1  UNL1        0.0000
      7 H           2.1848   -2.9785    2.2052 H       1  UNL1        0.0000
      8 H           2.4087   -2.0475    0.7319 H       1  UNL1        0.0000
      9 H           3.2823   -3.5417    0.9632 H       1  UNL1        0.0000
     10 H           5.3915   -3.5428    3.5383 H       1  UNL1        0.0000
     11 H           6.5797   -2.2832    3.2734 H       1  UNL1        0.0000
     12 H           6.1697   -3.3880    1.9769 H       1  UNL1        0.0000
     13 H           2.7259   -1.1280    4.1417 H       1  UNL1        0.0000
     14 H           3.4710    0.3256    3.4903 H       1  UNL1        0.0000
     15 H           4.3568   -0.7041    4.6045 H       1  UNL1        0.0000
     16 C           3.7205    0.3857   -0.5255 C.2     1  UNL1        0.0000
     17 O           3.1493   -0.6350   -1.2606 O.2     1  UNL1        0.0000
     18 SI          3.8886   -1.6720   -2.2667 Si      1  UNL1        0.0000
     19 C           5.3233   -2.6548   -1.4734 C.3     1  UNL1        0.0000
     20 C           2.4801   -2.8277   -2.8126 C.3     1  UNL1        0.0000
     21 C           4.5862   -0.7087   -3.7733 C.3     1  UNL1        0.0000
     22 H           6.0577   -2.9788   -2.2049 H       1  UNL1        0.0000
     23 H           5.8338   -2.0476   -0.7318 H       1  UNL1        0.0000
     24 H           4.9599   -3.5416   -0.9629 H       1  UNL1        0.0000
     25 H           2.8511   -3.5424   -3.5387 H       1  UNL1        0.0000
     26 H           1.6631   -2.2825   -3.2740 H       1  UNL1        0.0000
     27 H           2.0727   -3.3875   -1.9775 H       1  UNL1        0.0000
     28 H           5.5175   -1.1280   -4.1412 H       1  UNL1        0.0000
     29 H           4.7723    0.3256   -3.4901 H       1  UNL1        0.0000
     30 H           3.8867   -0.7039   -4.6046 H       1  UNL1        0.0000
@<TRIPOS>BOND
     1    30    21    1
     2    28    21    1
     3    21    29    1
     4    21    18    1
     5    25    20    1
     6    26    20    1
     7    20    18    1
     8    20    27    1
     9    18    19    1
    10    18    17    1
    11    22    19    1
    12    19    24    1
    13    19    23    1
    14    17    16    1
    15    16     3    2
    16     3     2    1
    17     8     4    1
    18     9     4    1
    19     2     1    1
    20     4     7    1
    21     4     1    1
    22    12     5    1
    23     1     5    1
    24     1     6    1
    25     5    11    1
    26     5    10    1
    27    14     6    1
    28     6    13    1
    29     6    15    1
