@<TRIPOS>MOLECULE
1,2
 30 29 0 0 0
SMALL
GASTEIGER

@<TRIPOS>ATOM
      1 C           2.1328    0.4802   13.0665 C.2     1  UNL1        0.0000
      2 C           1.2237    0.3663   12.1184 C.2     1  UNL1        0.0000
      3 O           3.4828    0.2696   13.0341 O.2     1  UNL1        0.0000
      4 O           1.2306    0.0903   10.7884 O.2     1  UNL1        0.0000
      5 SI          4.9193    0.9204   13.4014 Si      1  UNL1        0.0000
      6 SI          2.4545   -0.2415    9.7521 Si      1  UNL1        0.0000
      7 C           6.1326    0.1770   12.1289 C.3     1  UNL1        0.0000
      8 C           5.6002    0.3959   15.1148 C.3     1  UNL1        0.0000
      9 C           4.9596    2.8292   13.2926 C.3     1  UNL1        0.0000
     10 C           3.4954   -1.7460   10.2925 C.3     1  UNL1        0.0000
     11 C           3.5718    1.2814    9.4577 C.3     1  UNL1        0.0000
     12 C           1.4847   -0.6388    8.1601 C.3     1  UNL1        0.0000
     13 H           6.2475   -0.8932   12.2708 H       1  UNL1        0.0000
     14 H           5.8156    0.3360   11.1045 H       1  UNL1        0.0000
     15 H           7.1153    0.6226   12.2443 H       1  UNL1        0.0000
     16 H           5.5524   -0.6817   15.2461 H       1  UNL1        0.0000
     17 H           6.6458    0.6786   15.1951 H       1  UNL1        0.0000
     18 H           5.0781    0.8503   15.9496 H       1  UNL1        0.0000
     19 H           5.8686    3.2325   13.7286 H       1  UNL1        0.0000
     20 H           4.9207    3.1684   12.2609 H       1  UNL1        0.0000
     21 H           4.1191    3.2776   13.8152 H       1  UNL1        0.0000
     22 H           2.8899   -2.6469   10.3442 H       1  UNL1        0.0000
     23 H           4.3140   -1.9411    9.6072 H       1  UNL1        0.0000
     24 H           3.9187   -1.5750   11.2766 H       1  UNL1        0.0000
     25 H           3.9244    1.6864   10.4011 H       1  UNL1        0.0000
     26 H           4.4401    1.0330    8.8553 H       1  UNL1        0.0000
     27 H           3.0364    2.0722    8.9384 H       1  UNL1        0.0000
     28 H           0.8357    0.1809    7.8698 H       1  UNL1        0.0000
     29 H           2.1677   -0.8234    7.3387 H       1  UNL1        0.0000
     30 H           0.8642   -1.5214    8.2749 H       1  UNL1        0.0000
@<TRIPOS>BOND
     1    29    12    1
     2    28    12    1
     3    12    30    1
     4    12     6    1
     5    26    11    1
     6    27    11    1
     7    11     6    1
     8    11    25    1
     9    23    10    1
    10     6    10    1
    11     6     4    1
    12    10    22    1
    13    10    24    1
    14     4     2    1
    15    14     7    1
    16     2     1    2
    17     7    15    1
    18     7    13    1
    19     7     5    1
    20    20     9    1
    21     3     1    1
    22     3     5    1
    23     9     5    1
    24     9    19    1
    25     9    21    1
    26     5     8    1
    27     8    17    1
    28     8    16    1
    29     8    18    1
