@<TRIPOS>MOLECULE
1,12
 50 51 0 0 0
SMALL
GASTEIGER

@<TRIPOS>ATOM
      1 C          -2.4275   10.7053    3.2284 C.3     1  UNL1        0.0000
      2 C          -2.5227   11.5041    4.4635 C.ar    1  UNL1        0.0000
      3 C          -3.6005   11.4107    5.3556 C.ar    1  UNL1        0.0000
      4 C          -3.7115   12.2405    6.4546 C.ar    1  UNL1        0.0000
      5 C          -2.7564   13.2149    6.6939 C.ar    1  UNL1        0.0000
      6 C          -1.6747   13.3240    5.8346 C.ar    1  UNL1        0.0000
      7 C          -1.5298   12.4701    4.7520 C.ar    1  UNL1        0.0000
      8 SI         -4.0420   10.3597    2.3038 Si      1  UNL1        0.0000
      9 C          -5.3814   11.7155    2.5309 C.3     1  UNL1        0.0000
     10 C          -4.8630    8.6689    2.7226 C.3     1  UNL1        0.0000
     11 C          -3.7181   10.3594    0.4115 C.3     1  UNL1        0.0000
     12 C           0.7131   10.5058    4.5801 C.3     1  UNL1        0.0000
     13 C           0.6438   11.7099    3.7071 C.ar    1  UNL1        0.0000
     14 C           1.6742   12.0016    2.8049 C.ar    1  UNL1        0.0000
     15 C           1.6726   13.1417    2.0244 C.ar    1  UNL1        0.0000
     16 C           0.6437   14.0595    2.1425 C.ar    1  UNL1        0.0000
     17 C          -0.3732   13.8152    3.0488 C.ar    1  UNL1        0.0000
     18 C          -0.3909   12.6616    3.8217 C.ar    1  UNL1        0.0000
     19 SI          1.2686   11.0309    6.3289 Si      1  UNL1        0.0000
     20 C           2.1412   12.7365    6.2545 C.3     1  UNL1        0.0000
     21 C           0.0564   11.1484    7.8097 C.3     1  UNL1        0.0000
     22 C           2.6339    9.7676    6.8370 C.3     1  UNL1        0.0000
     23 H          -1.7700   11.2503    2.5278 H       1  UNL1        0.0000
     24 H          -4.3817   10.6896    5.1623 H       1  UNL1        0.0000
     25 H          -4.5603   12.1426    7.1164 H       1  UNL1        0.0000
     26 H          -2.8543   13.8846    7.5347 H       1  UNL1        0.0000
     27 H          -0.9269   14.0848    6.0069 H       1  UNL1        0.0000
     28 H           1.5801    9.9063    4.2321 H       1  UNL1        0.0000
     29 H           2.5218   11.3298    2.7425 H       1  UNL1        0.0000
     30 H           2.4871   13.3242    1.3379 H       1  UNL1        0.0000
     31 H           0.6388   14.9594    1.5462 H       1  UNL1        0.0000
     32 H          -1.1799   14.5263    3.1614 H       1  UNL1        0.0000
     33 H          -5.5815   11.9322    3.5740 H       1  UNL1        0.0000
     34 H          -5.0648   12.6445    2.0667 H       1  UNL1        0.0000
     35 H          -6.3191   11.4215    2.0693 H       1  UNL1        0.0000
     36 H          -4.1343    7.8766    2.8824 H       1  UNL1        0.0000
     37 H          -5.4905    8.7297    3.6067 H       1  UNL1        0.0000
     38 H          -5.5066    8.3618    1.9036 H       1  UNL1        0.0000
     39 H          -3.1342   11.2234    0.1098 H       1  UNL1        0.0000
     40 H          -3.1980    9.4727    0.0681 H       1  UNL1        0.0000
     41 H          -4.6602   10.4063   -0.1253 H       1  UNL1        0.0000
     42 H           2.8979   12.7575    5.4762 H       1  UNL1        0.0000
     43 H           1.4341   13.5280    6.0313 H       1  UNL1        0.0000
     44 H           2.6263   12.9813    7.1943 H       1  UNL1        0.0000
     45 H          -0.8779   11.6328    7.5514 H       1  UNL1        0.0000
     46 H          -0.1689   10.1799    8.2422 H       1  UNL1        0.0000
     47 H           0.5214   11.7444    8.5896 H       1  UNL1        0.0000
     48 H           2.4471    8.7689    6.4496 H       1  UNL1        0.0000
     49 H           3.6043   10.0791    6.4635 H       1  UNL1        0.0000
     50 H           2.7144    9.6912    7.9162 H       1  UNL1        0.0000
@<TRIPOS>BOND
     1    41    11    1
     2    40    11    1
     3    39    11    1
     4    11     8    1
     5    30    15    1
     6    31    16    1
     7    38    10    1
     8    15    16   ar
     9    15    14   ar
    10    34     9    1
    11    35     9    1
    12    16    17   ar
    13     8     9    1
    14     8    10    1
    15     8     1    1
    16    23     1    1
    17     9    33    1
    18    10    36    1
    19    10    37    1
    20    29    14    1
    21    14    13   ar
    22    17    32    1
    23    17    18   ar
    24     1     2    1
    25    13    18   ar
    26    13    12    1
    27    18     7    1
    28    28    12    1
    29     2     7   ar
    30     2     3   ar
    31    12    19    1
    32     7     6   ar
    33    24     3    1
    34     3     4   ar
    35    42    20    1
    36     6    27    1
    37     6     5   ar
    38    43    20    1
    39    20    19    1
    40    20    44    1
    41    19    22    1
    42    19    21    1
    43    48    22    1
    44     4     5   ar
    45     4    25    1
    46    49    22    1
    47     5    26    1
    48    22    50    1
    49    45    21    1
    50    21    46    1
    51    21    47    1
