@<TRIPOS>MOLECULE
9,10
 28 27 0 0 0
SMALL
GASTEIGER

@<TRIPOS>ATOM
      1 SI         11.2972    5.8303   14.3959 Si      1  UNL1        0.0000
      2 SI          8.3540    8.6789   13.4286 Si      1  UNL1        0.0000
      3 C          13.0184    5.0537   14.0499 C.3     1  UNL1        0.0000
      4 C          11.1995    6.3066   16.2499 C.3     1  UNL1        0.0000
      5 C           9.9969    4.4672   14.0420 C.3     1  UNL1        0.0000
      6 C           7.4130    7.2934   14.3552 C.3     1  UNL1        0.0000
      7 C           7.3242    9.0631   11.8506 C.3     1  UNL1        0.0000
      8 C           8.3689   10.2250   14.5671 C.3     1  UNL1        0.0000
      9 C          10.9951    7.3529   13.3588 C.2     1  UNL1        0.0000
     10 C          10.1119    8.2184   13.0180 C.2     1  UNL1        0.0000
     11 H          13.7743    5.8139   13.8740 H       1  UNL1        0.0000
     12 H          12.9944    4.4120   13.1736 H       1  UNL1        0.0000
     13 H          13.3513    4.4462   14.8873 H       1  UNL1        0.0000
     14 H          11.9669    7.0268   16.5163 H       1  UNL1        0.0000
     15 H          11.3241    5.4376   16.8892 H       1  UNL1        0.0000
     16 H          10.2390    6.7550   16.4841 H       1  UNL1        0.0000
     17 H           9.8750    4.3047   12.9753 H       1  UNL1        0.0000
     18 H           9.0258    4.7333   14.4437 H       1  UNL1        0.0000
     19 H          10.2919    3.5216   14.4879 H       1  UNL1        0.0000
     20 H           7.9589    6.9785   15.2380 H       1  UNL1        0.0000
     21 H           7.2783    6.4223   13.7227 H       1  UNL1        0.0000
     22 H           6.4297    7.6264   14.6744 H       1  UNL1        0.0000
     23 H           7.6495    8.4485   11.0160 H       1  UNL1        0.0000
     24 H           7.4179   10.1037   11.5532 H       1  UNL1        0.0000
     25 H           6.2690    8.8642   12.0127 H       1  UNL1        0.0000
     26 H           8.5830    9.9430   15.5934 H       1  UNL1        0.0000
     27 H           7.4145   10.7445   14.5615 H       1  UNL1        0.0000
     28 H           9.1369   10.9295   14.2591 H       1  UNL1        0.0000
@<TRIPOS>BOND
     1    23     7    1
     2    24     7    1
     3     7    25    1
     4     7     2    1
     5    17     5    1
     6    10     9    2
     7    10     2    1
     8    12     3    1
     9     9     1    1
    10     2     6    1
    11     2     8    1
    12    21     6    1
    13    11     3    1
    14     5     1    1
    15     5    18    1
    16     5    19    1
    17     3     1    1
    18     3    13    1
    19    28     8    1
    20     6    22    1
    21     6    20    1
    22     1     4    1
    23    27     8    1
    24     8    26    1
    25     4    16    1
    26     4    14    1
    27     4    15    1
