@<TRIPOS>MOLECULE
4,5
 25 25 0 0 0
SMALL
GASTEIGER

@<TRIPOS>ATOM
      1 C           2.9547    7.0803   12.0259 C.2     1  UNL1       -0.0658
      2 C           2.2088    6.1695   12.8072 C.2     1  UNL1       -0.0658
      3 C           1.3513    5.4391   11.9421 C.3     1  UNL1        0.0052
      4 C           1.5579    5.9094   10.6121 C.3     1  UNL1       -0.0053
      5 C           2.5713    6.9237   10.6668 C.3     1  UNL1        0.0052
      6 C           3.8344    8.1892   12.5257 C.3     1  UNL1       -0.0430
      7 C           2.1600    6.1416   14.3083 C.3     1  UNL1       -0.0430
      8 C           0.2613    4.4944   12.3669 C.3     1  UNL1       -0.0545
      9 C           0.7397    5.5479    9.3996 C.3     1  UNL1       -0.0574
     10 C           2.9782    7.8436    9.5481 C.3     1  UNL1       -0.0545
     11 H           4.1098    8.0388   13.5678 H       1  UNL1        0.0275
     12 H           3.3066    9.1431   12.4550 H       1  UNL1        0.0275
     13 H           4.7435    8.2716   11.9313 H       1  UNL1        0.0275
     14 H           3.1141    6.4349   14.7446 H       1  UNL1        0.0275
     15 H           1.9074    5.1509   14.6838 H       1  UNL1        0.0275
     16 H           1.4002    6.8372   14.6716 H       1  UNL1        0.0275
     17 H           0.4205    4.1477   13.3863 H       1  UNL1        0.0239
     18 H           0.2124    3.6245   11.7126 H       1  UNL1        0.0239
     19 H          -0.7076    4.9969   12.3318 H       1  UNL1        0.0239
     20 H           0.2115    4.6088    9.5559 H       1  UNL1        0.0236
     21 H           1.3674    5.4418    8.5122 H       1  UNL1        0.0236
     22 H          -0.0020    6.3248    9.1984 H       1  UNL1        0.0236
     23 H           4.0606    7.9794    9.5199 H       1  UNL1        0.0239
     24 H           2.5203    8.8264    9.6878 H       1  UNL1        0.0239
     25 H           2.6609    7.4530    8.5836 H       1  UNL1        0.0239
@<TRIPOS>BOND
     1    21     9    1
     2    25    10    1
     3    22     9    1
     4     9    20    1
     5     9     4    1
     6    23    10    1
     7    10    24    1
     8    10     5    1
     9     4     5    1
    10     4     3    1
    11     5     1    1
    12    18     8    1
    13    13     6    1
    14     3     8    1
    15     3     2    1
    16     1     6    1
    17     1     2    2
    18    19     8    1
    19     8    17    1
    20    12     6    1
    21     6    11    1
    22     2     7    1
    23     7    16    1
    24     7    15    1
    25     7    14    1
