@<TRIPOS>MOLECULE
1,2
 22 22 0 0 0
SMALL
GASTEIGER

@<TRIPOS>ATOM
      1 C           3.7639    4.1858    2.5204 C.3     1  UNL1       -0.0349
      2 C           4.0796    3.1873    1.5885 C.3     1  UNL1       -0.0349
      3 C           4.1876    3.4119    0.1032 C.3     1  UNL1       -0.0497
      4 C           5.5852    3.8910   -0.3164 C.3     1  UNL1       -0.0528
      5 C           5.8915    5.3500    0.0293 C.3     1  UNL1       -0.0530
      6 C           6.1132    5.6179    1.5246 C.3     1  UNL1       -0.0530
      7 C           4.9635    6.3459    2.2232 C.3     1  UNL1       -0.0528
      8 C           3.6043    5.6328    2.1380 C.3     1  UNL1       -0.0497
      9 H           4.2086    4.0869    3.5131 H       1  UNL1        0.0306
     10 H           4.7747    2.4162    1.9172 H       1  UNL1        0.0306
     11 H           3.4563    4.1361   -0.2419 H       1  UNL1        0.0268
     12 H           3.9918    2.4671   -0.4137 H       1  UNL1        0.0268
     13 H           5.6662    3.7784   -1.4013 H       1  UNL1        0.0265
     14 H           6.3440    3.2471    0.1353 H       1  UNL1        0.0265
     15 H           5.0889    5.9869   -0.3466 H       1  UNL1        0.0265
     16 H           6.7975    5.6281   -0.5153 H       1  UNL1        0.0265
     17 H           7.0072    6.2343    1.6492 H       1  UNL1        0.0265
     18 H           6.3027    4.6730    2.0339 H       1  UNL1        0.0265
     19 H           4.8585    7.3463    1.7953 H       1  UNL1        0.0265
     20 H           5.2336    6.4667    3.2757 H       1  UNL1        0.0265
     21 H           2.9190    6.1450    2.8160 H       1  UNL1        0.0268
     22 H           3.2100    5.7259    1.1292 H       1  UNL1        0.0268
@<TRIPOS>BOND
     1    13     4    1
     2    16     5    1
     3    12     3    1
     4    15     5    1
     5     4     5    1
     6     4     3    1
     7     4    14    1
     8    11     3    1
     9     5     6    1
    10     3     2    1
    11    22     8    1
    12     6    17    1
    13     6    18    1
    14     6     7    1
    15     2    10    1
    16     2     1    1
    17    19     7    1
    18     8     7    1
    19     8     1    1
    20     8    21    1
    21     7    20    1
    22     1     9    1
