@<TRIPOS>MOLECULE
3,4
 46 48 0 0 0
SMALL
GASTEIGER

@<TRIPOS>ATOM
      1 N          14.6801    0.0365    1.6834 N.pl3   1  UNL1       -0.2762
      2 N          12.5359   -0.0579    1.5798 N.pl3   1  UNL1       -0.2762
      3 C          13.5570    0.7098    2.0427 C.3     1  UNL1        0.1959
      4 C          15.0689    2.7607    1.3218 C.3     1  UNL1       -0.0219
      5 H          14.6690    2.3802    0.3771 H       1  UNL1        0.0317
      6 H          15.4209    3.7778    1.1580 H       1  UNL1        0.0317
      7 C          14.3682   -1.0999    0.9851 C.2     1  UNL1        0.0131
      8 H          15.1074   -1.7445    0.5593 H       1  UNL1        0.0797
      9 C          13.0215   -1.1663    0.9220 C.2     1  UNL1        0.0131
     10 H          12.3814   -1.8775    0.4433 H       1  UNL1        0.0797
     11 C          15.9731    0.5286    1.9644 C.ar    1  UNL1        0.0417
     12 C          16.1566    1.9199    1.8067 C.ar    1  UNL1       -0.0252
     13 C          17.4115    2.4422    2.1273 C.ar    1  UNL1       -0.0539
     14 H          17.5816    3.4999    1.9843 H       1  UNL1        0.0623
     15 C          18.4421    1.6437    2.5876 C.ar    1  UNL1       -0.0498
     16 C          18.2219    0.2808    2.7299 C.ar    1  UNL1       -0.0541
     17 H          19.0225   -0.3512    3.0882 H       1  UNL1        0.0623
     18 C          16.9910   -0.2942    2.4313 C.ar    1  UNL1       -0.0286
     19 C          16.8140   -1.7713    2.6415 C.3     1  UNL1       -0.0379
     20 H          15.8018   -2.0086    2.9630 H       1  UNL1        0.0278
     21 H          17.5063   -2.1215    3.4040 H       1  UNL1        0.0278
     22 H          17.0300   -2.3238    1.7254 H       1  UNL1        0.0278
     23 C          19.7834    2.2233    2.9299 C.3     1  UNL1       -0.0397
     24 H          20.5780    1.6731    2.4274 H       1  UNL1        0.0278
     25 H          19.9608    2.1539    4.0035 H       1  UNL1        0.0278
     26 H          19.8441    3.2683    2.6351 H       1  UNL1        0.0278
     27 C          11.1625    0.2308    1.6936 C.ar    1  UNL1        0.0414
     28 C          10.2934   -0.7063    2.2555 C.ar    1  UNL1       -0.0286
     29 C           8.9376   -0.4130    2.2957 C.ar    1  UNL1       -0.0541
     30 H           8.2591   -1.1361    2.7261 H       1  UNL1        0.0623
     31 C           8.4362    0.7909    1.8235 C.ar    1  UNL1       -0.0498
     32 C           9.3244    1.7164    1.2962 C.ar    1  UNL1       -0.0541
     33 H           8.9528    2.6626    0.9309 H       1  UNL1        0.0623
     34 C          10.6822    1.4536    1.2173 C.ar    1  UNL1       -0.0286
     35 C          11.6130    2.4495    0.5988 C.3     1  UNL1       -0.0379
     36 H          12.1995    2.9860    1.3727 H       1  UNL1        0.0278
     37 H          11.0530    3.1968    0.0425 H       1  UNL1        0.0278
     38 H          12.3049    1.9562   -0.0826 H       1  UNL1        0.0278
     39 C           6.9730    1.0974    1.9208 C.3     1  UNL1       -0.0397
     40 H           6.3766    0.1979    1.7863 H       1  UNL1        0.0278
     41 H           6.6787    1.8322    1.1755 H       1  UNL1        0.0278
     42 H           6.7481    1.5050    2.9068 H       1  UNL1        0.0278
     43 C          10.7959   -1.9885    2.8497 C.3     1  UNL1       -0.0379
     44 H          10.8474   -2.7782    2.0999 H       1  UNL1        0.0278
     45 H          10.1215   -2.3226    3.6347 H       1  UNL1        0.0278
     46 H          11.7868   -1.8528    3.2782 H       1  UNL1        0.0278
@<TRIPOS>BOND
     1    38    35    1
     2    37    35    1
     3     5     4    1
     4    10     9    1
     5     8     7    1
     6    35    34    1
     7    35    36    1
     8     9     7    2
     9     9     2    1
    10    33    32    1
    11     7     1    1
    12     6     4    1
    13    41    39    1
    14    34    32   ar
    15    34    27   ar
    16    32    31   ar
    17     4    12    1
    18     2    27    1
    19     2     3    1
    20     1    11    1
    21     1     3    1
    22    27    28   ar
    23    22    19    1
    24    40    39    1
    25    12    11   ar
    26    12    13   ar
    27    31    39    1
    28    31    29   ar
    29    39    42    1
    30    11    18   ar
    31    14    13    1
    32    44    43    1
    33    13    15   ar
    34    28    29   ar
    35    28    43    1
    36    29    30    1
    37    24    23    1
    38    18    19    1
    39    18    16   ar
    40    15    16   ar
    41    15    23    1
    42    26    23    1
    43    19    20    1
    44    19    21    1
    45    16    17    1
    46    43    46    1
    47    43    45    1
    48    23    25    1
