@<TRIPOS>MOLECULE
3,4
 46 48 0 0 0
SMALL
GASTEIGER

@<TRIPOS>ATOM
      1 N           6.2658   21.8975   15.5402 N.pl3   1  UNL1       -0.2762
      2 N           7.6598   22.4016   13.9822 N.pl3   1  UNL1       -0.2762
      3 C           6.3730   22.5959   14.3859 C.3     1  UNL1        0.1959
      4 C           5.0177   24.3766   15.8170 C.3     1  UNL1       -0.0219
      5 H           6.0640   24.5594   16.0816 H       1  UNL1        0.0317
      6 H           4.4380   25.2537   16.1073 H       1  UNL1        0.0317
      7 C           7.4612   21.3201   15.8818 C.2     1  UNL1        0.0131
      8 H           7.6027   20.7712   16.7890 H       1  UNL1        0.0797
      9 C           8.3364   21.6317   14.9042 C.2     1  UNL1        0.0131
     10 H           9.3777   21.4069   14.8131 H       1  UNL1        0.0797
     11 C           5.1132   21.9385   16.3534 C.ar    1  UNL1        0.0417
     12 C           4.5136   23.2028   16.5305 C.ar    1  UNL1       -0.0252
     13 C           3.4669   23.2850   17.4507 C.ar    1  UNL1       -0.0539
     14 H           3.0386   24.2553   17.6552 H       1  UNL1        0.0623
     15 C           3.0102   22.1805   18.1461 C.ar    1  UNL1       -0.0498
     16 C           3.5767   20.9409   17.8844 C.ar    1  UNL1       -0.0541
     17 H           3.2138   20.0671   18.4079 H       1  UNL1        0.0623
     18 C           4.6254   20.8003   16.9836 C.ar    1  UNL1       -0.0286
     19 C           5.1895   19.4309   16.7313 C.3     1  UNL1       -0.0379
     20 H           5.8813   19.1421   17.5244 H       1  UNL1        0.0278
     21 H           5.7143   19.3834   15.7807 H       1  UNL1        0.0278
     22 H           4.3828   18.7000   16.7180 H       1  UNL1        0.0278
     23 C           1.9420   22.3063   19.1927 C.3     1  UNL1       -0.0397
     24 H           1.1607   21.5628   19.0413 H       1  UNL1        0.0278
     25 H           1.4936   23.2969   19.1787 H       1  UNL1        0.0278
     26 H           2.3675   22.1398   20.1828 H       1  UNL1        0.0278
     27 C           8.2681   22.8874   12.8064 C.ar    1  UNL1        0.0414
     28 C           8.9964   22.0233   11.9815 C.ar    1  UNL1       -0.0286
     29 C           9.6200   22.5428   10.8566 C.ar    1  UNL1       -0.0541
     30 H          10.1707   21.8715   10.2133 H       1  UNL1        0.0623
     31 C           9.5598   23.8894   10.5357 C.ar    1  UNL1       -0.0498
     32 C           8.8400   24.7284   11.3713 C.ar    1  UNL1       -0.0541
     33 H           8.7809   25.7834   11.1428 H       1  UNL1        0.0623
     34 C           8.1814   24.2474   12.4926 C.ar    1  UNL1       -0.0286
     35 C           7.3867   25.1927   13.3380 C.3     1  UNL1       -0.0379
     36 H           6.3030   25.0908   13.1003 H       1  UNL1        0.0278
     37 H           7.6652   26.2195   13.1123 H       1  UNL1        0.0278
     38 H           7.5577   25.0098   14.3977 H       1  UNL1        0.0278
     39 C          10.2242   24.4137    9.3004 C.3     1  UNL1       -0.0397
     40 H           9.5712   24.2561    8.4418 H       1  UNL1        0.0278
     41 H          11.1604   23.8936    9.1102 H       1  UNL1        0.0278
     42 H          10.4216   25.4794    9.3870 H       1  UNL1        0.0278
     43 C           9.1361   20.5557   12.2570 C.3     1  UNL1       -0.0379
     44 H           9.1959   20.0112   11.3182 H       1  UNL1        0.0278
     45 H           8.2926   20.1693   12.8214 H       1  UNL1        0.0278
     46 H          10.0525   20.3540   12.8136 H       1  UNL1        0.0278
@<TRIPOS>BOND
     1    40    39    1
     2    41    39    1
     3    39    42    1
     4    39    31    1
     5    30    29    1
     6    31    29   ar
     7    31    32   ar
     8    29    28   ar
     9    33    32    1
    10    44    43    1
    11    32    34   ar
    12    28    43    1
    13    28    27   ar
    14    43    46    1
    15    43    45    1
    16    34    27   ar
    17    34    35    1
    18    27     2    1
    19    36    35    1
    20    37    35    1
    21    35    38    1
    22     2     3    1
    23     2     9    1
    24     3     1    1
    25    10     9    1
    26     9     7    2
    27     1     7    1
    28     1    11    1
    29    21    19    1
    30     4     5    1
    31     4     6    1
    32     4    12    1
    33     7     8    1
    34    11    12   ar
    35    11    18   ar
    36    12    13   ar
    37    22    19    1
    38    19    18    1
    39    19    20    1
    40    18    16   ar
    41    13    14    1
    42    13    15   ar
    43    16    15   ar
    44    16    17    1
    45    15    23    1
    46    24    23    1
    47    25    23    1
    48    23    26    1
