@<TRIPOS>MOLECULE
5,29
 54 57 0 0 0
SMALL
GASTEIGER

@<TRIPOS>ATOM
      1 N          10.5558    5.9482    6.7688 N.2     1  UNL1        0.0000
      2 SI         10.1813    4.4571    7.5437 Si      1  UNL1        0.0000
      3 C           9.6800    6.7057    6.2373 C.2     1  UNL1        0.0000
      4 C           8.2484    6.3915    6.2325 C.3     1  UNL1        0.0000
      5 C           7.6319    5.4351    7.1495 C.2     1  UNL1        0.0000
      6 C           8.2952    4.4826    7.8336 C.2     1  UNL1        0.0000
      7 C          10.1172    7.9705    5.6182 C.ar    1  UNL1        0.0000
      8 C          11.2470    7.9842    4.8055 C.ar    1  UNL1        0.0000
      9 H          11.7940    7.0648    4.6620 H       1  UNL1        0.0000
     10 C          11.6438    9.1525    4.1841 C.ar    1  UNL1        0.0000
     11 H          12.5125    9.1533    3.5421 H       1  UNL1        0.0000
     12 C          10.9299   10.3230    4.3830 C.ar    1  UNL1        0.0000
     13 H          11.2369   11.2349    3.8923 H       1  UNL1        0.0000
     14 C           9.8287   10.3252    5.2228 C.ar    1  UNL1        0.0000
     15 H           9.2840   11.2420    5.3966 H       1  UNL1        0.0000
     16 C           9.4232    9.1560    5.8376 C.ar    1  UNL1        0.0000
     17 H           8.5772    9.1575    6.5103 H       1  UNL1        0.0000
     18 C           7.6437    3.4867    8.6820 C.ar    1  UNL1        0.0000
     19 C           6.2839    3.5668    8.9951 C.ar    1  UNL1        0.0000
     20 H           5.7103    4.3926    8.5900 H       1  UNL1        0.0000
     21 C           5.6733    2.6262    9.8003 C.ar    1  UNL1        0.0000
     22 H           4.6202    2.7160   10.0301 H       1  UNL1        0.0000
     23 C           6.4039    1.5677   10.3162 C.ar    1  UNL1        0.0000
     24 H           5.9284    0.8314   10.9471 H       1  UNL1        0.0000
     25 C           7.7509    1.4654   10.0110 C.ar    1  UNL1        0.0000
     26 H           8.3305    0.6423   10.4041 H       1  UNL1        0.0000
     27 C           8.3612    2.4090    9.2073 C.ar    1  UNL1        0.0000
     28 H           9.4103    2.3074    8.9798 H       1  UNL1        0.0000
     29 C           7.2968    6.9150    5.4057 C.3     1  UNL1        0.0000
     30 C           7.4922    7.6076    4.1594 C.ar    1  UNL1        0.0000
     31 C           8.4518    7.1358    3.2500 C.ar    1  UNL1        0.0000
     32 H           9.0445    6.2719    3.5177 H       1  UNL1        0.0000
     33 C           8.6381    7.7548    2.0324 C.ar    1  UNL1        0.0000
     34 H           9.3878    7.3797    1.3509 H       1  UNL1        0.0000
     35 C           7.8723    8.8555    1.6814 C.ar    1  UNL1        0.0000
     36 H           8.0256    9.3442    0.7310 H       1  UNL1        0.0000
     37 C           6.9008    9.3175    2.5549 C.ar    1  UNL1        0.0000
     38 H           6.2923   10.1679    2.2813 H       1  UNL1        0.0000
     39 C           6.7007    8.6961    3.7710 C.ar    1  UNL1        0.0000
     40 H           5.9370    9.0658    4.4425 H       1  UNL1        0.0000
     41 C           9.7463    3.1297    5.0606 C.3     1  UNL1        0.0000
     42 H           8.6963    3.0153    5.3259 H       1  UNL1        0.0000
     43 H          10.0098    2.3499    4.3473 H       1  UNL1        0.0000
     44 H           9.8653    4.0951    4.5725 H       1  UNL1        0.0000
     45 C          10.6209    3.0607    6.3056 C.3     1  UNL1        0.0000
     46 H          11.6667    3.1597    6.0164 H       1  UNL1        0.0000
     47 H          10.5136    2.0783    6.7643 H       1  UNL1        0.0000
     48 C          11.2584    4.4104    9.1164 C.3     1  UNL1        0.0000
     49 H          11.4923    3.3831    9.3920 H       1  UNL1        0.0000
     50 H          12.2075    4.8949    8.8923 H       1  UNL1        0.0000
     51 C          10.6056    5.1154   10.2977 C.3     1  UNL1        0.0000
     52 H          10.3869    6.1497   10.0424 H       1  UNL1        0.0000
     53 H          11.2603    5.1087   11.1682 H       1  UNL1        0.0000
     54 H           9.6717    4.6275   10.5687 H       1  UNL1        0.0000
@<TRIPOS>BOND
     1    36    35    1
     2    34    33    1
     3    35    33   ar
     4    35    37   ar
     5    33    31   ar
     6    38    37    1
     7    37    39   ar
     8    31    32    1
     9    31    30   ar
    10    11    10    1
    11    39    30   ar
    12    39    40    1
    13    13    12    1
    14    30    29    1
    15    10    12   ar
    16    10     8   ar
    17    43    41    1
    18    12    14   ar
    19    44    41    1
    20     9     8    1
    21     8     7   ar
    22    41    42    1
    23    41    45    1
    24    14    15    1
    25    14    16   ar
    26    29     4    1
    27     7    16   ar
    28     7     3    1
    29    16    17    1
    30    46    45    1
    31     4     3    1
    32     4     5    1
    33     3     1    2
    34    45    47    1
    35    45     2    1
    36     1     2    1
    37     5     6    2
    38     2     6    1
    39     2    48    1
    40     6    18    1
    41    20    19    1
    42    18    19   ar
    43    18    27   ar
    44    50    48    1
    45    28    27    1
    46    19    21   ar
    47    48    49    1
    48    48    51    1
    49    27    25   ar
    50    21    22    1
    51    21    23   ar
    52    25    23   ar
    53    25    26    1
    54    52    51    1
    55    51    54    1
    56    51    53    1
    57    23    24    1
