@<TRIPOS>MOLECULE
3,5
 48 51 0 0 0
SMALL
GASTEIGER

@<TRIPOS>ATOM
      1 N           0.9579    9.5907    4.9718 N.2     1  UNL1        0.0000
      2 SI          1.5373   11.2136    4.9066 Si      1  UNL1        0.0000
      3 C          -0.5434    9.5183    8.2994 C.2     1  UNL1        0.0000
      4 C           0.3423    9.7757    7.2954 C.2     1  UNL1        0.0000
      5 C           1.1713   10.9329    7.6252 C.3     1  UNL1        0.0000
      6 C           1.8063   11.6950    6.7271 C.3     1  UNL1        0.0000
      7 C           0.4833    9.0525    6.0253 C.2     1  UNL1        0.0000
      8 C           0.1961   12.3017    4.0819 C.3     1  UNL1        0.0000
      9 H          -0.3140   11.7363    3.3087 H       1  UNL1        0.0000
     10 H           0.6316   13.1772    3.6119 H       1  UNL1        0.0000
     11 H          -0.5515   12.6373    4.7953 H       1  UNL1        0.0000
     12 C           3.1406   11.2580    3.8912 C.3     1  UNL1        0.0000
     13 H           3.8822   10.5646    4.2719 H       1  UNL1        0.0000
     14 H           3.5736   12.2524    3.9057 H       1  UNL1        0.0000
     15 H           2.9382   10.9964    2.8591 H       1  UNL1        0.0000
     16 C          -1.7060    8.6695    8.2245 C.ar    1  UNL1        0.0000
     17 C          -2.0788    7.8106    9.2651 C.ar    1  UNL1        0.0000
     18 H          -1.4586    7.7481   10.1494 H       1  UNL1        0.0000
     19 C          -3.2081    7.0238    9.1597 C.ar    1  UNL1        0.0000
     20 H          -3.4703    6.3521    9.9648 H       1  UNL1        0.0000
     21 C          -4.0086    7.0920    8.0307 C.ar    1  UNL1        0.0000
     22 H          -4.8914    6.4754    7.9525 H       1  UNL1        0.0000
     23 C          -3.6729    7.9631    7.0061 C.ar    1  UNL1        0.0000
     24 H          -4.2986    8.0296    6.1278 H       1  UNL1        0.0000
     25 C          -2.5402    8.7439    7.0986 C.ar    1  UNL1        0.0000
     26 H          -2.2809    9.4282    6.3018 H       1  UNL1        0.0000
     27 C           2.6276   12.8504    7.0906 C.ar    1  UNL1        0.0000
     28 C           2.5054   14.0621    6.4106 C.ar    1  UNL1        0.0000
     29 H           1.7790   14.1498    5.6164 H       1  UNL1        0.0000
     30 C           3.2866   15.1483    6.7556 C.ar    1  UNL1        0.0000
     31 H           3.1727   16.0827    6.2243 H       1  UNL1        0.0000
     32 C           4.2178   15.0438    7.7765 C.ar    1  UNL1        0.0000
     33 H           4.8313   15.8923    8.0417 H       1  UNL1        0.0000
     34 C           4.3645   13.8399    8.4455 C.ar    1  UNL1        0.0000
     35 H           5.1029   13.7465    9.2300 H       1  UNL1        0.0000
     36 C           3.5770   12.7549    8.1080 C.ar    1  UNL1        0.0000
     37 H           3.7172   11.8038    8.6022 H       1  UNL1        0.0000
     38 C           0.0686    7.6400    5.9897 C.ar    1  UNL1        0.0000
     39 C           0.3374    6.7903    7.0588 C.ar    1  UNL1        0.0000
     40 H           0.8966    7.1649    7.9049 H       1  UNL1        0.0000
     41 C          -0.0844    5.4750    7.0269 C.ar    1  UNL1        0.0000
     42 H           0.1275    4.8209    7.8603 H       1  UNL1        0.0000
     43 C          -0.7799    4.9948    5.9296 C.ar    1  UNL1        0.0000
     44 H          -1.1201    3.9698    5.9123 H       1  UNL1        0.0000
     45 C          -1.0281    5.8279    4.8508 C.ar    1  UNL1        0.0000
     46 H          -1.5583    5.4498    3.9889 H       1  UNL1        0.0000
     47 C          -0.5987    7.1406    4.8750 C.ar    1  UNL1        0.0000
     48 H          -0.7826    7.8024    4.0426 H       1  UNL1        0.0000
@<TRIPOS>BOND
     1    15    12    1
     2     9     8    1
     3    10     8    1
     4    12    14    1
     5    12    13    1
     6    12     2    1
     7    46    45    1
     8    48    47    1
     9     8    11    1
    10     8     2    1
    11    45    47   ar
    12    45    43   ar
    13    47    38   ar
    14     2     1    1
    15     2     6    1
    16     1     7    2
    17    29    28    1
    18    44    43    1
    19    43    41   ar
    20    38     7    1
    21    38    39   ar
    22     7     4    1
    23    24    23    1
    24    31    30    1
    25    26    25    1
    26    28    30   ar
    27    28    27   ar
    28     6    27    1
    29     6     5    1
    30    30    32   ar
    31    23    25   ar
    32    23    21   ar
    33    41    39   ar
    34    41    42    1
    35    39    40    1
    36    27    36   ar
    37    25    16   ar
    38     4     5    1
    39     4     3    2
    40    32    33    1
    41    32    34   ar
    42    22    21    1
    43    21    19   ar
    44    36    34   ar
    45    36    37    1
    46    16     3    1
    47    16    17   ar
    48    34    35    1
    49    19    17   ar
    50    19    20    1
    51    17    18    1
