@<TRIPOS>MOLECULE
1,2
 24 25 0 0 0
SMALL
GASTEIGER

@<TRIPOS>ATOM
      1 C           4.6215   13.7942    1.3954 C.1     1  UNL1       -0.1025
      2 C           5.8187   13.4299    1.3166 C.2     1  UNL1        0.0401
      3 C           3.2868   14.0904    1.0106 C.2     1  UNL1        0.0171
      4 C           2.4673   13.0629    0.5243 C.2     1  UNL1       -0.0503
      5 H           2.8665   12.0612    0.4504 H       1  UNL1        0.0627
      6 C           1.1647   13.3248    0.1523 C.2     1  UNL1       -0.0752
      7 H           0.5424   12.5223   -0.2177 H       1  UNL1        0.0579
      8 C           0.6515   14.6094    0.2499 C.3     1  UNL1        0.0055
      9 H          -0.3688   14.8106   -0.0409 H       1  UNL1        0.0394
     10 C           1.4558   15.6332    0.7265 C.2     1  UNL1       -0.0752
     11 H           1.0606   16.6364    0.8052 H       1  UNL1        0.0579
     12 C           2.7576   15.3810    1.1116 C.2     1  UNL1       -0.0503
     13 H           3.3761   16.1772    1.4979 H       1  UNL1        0.0627
     14 C           7.0104   13.0702    0.6148 C.ar    1  UNL1       -0.0090
     15 C           8.1691   12.6974    1.2991 C.ar    1  UNL1       -0.0534
     16 H           8.1600   12.6788    2.3811 H       1  UNL1        0.0624
     17 C           9.3086   12.3494    0.6016 C.ar    1  UNL1       -0.0612
     18 H          10.2002   12.0592    1.1390 H       1  UNL1        0.0618
     19 C           9.3106   12.3694   -0.7842 C.ar    1  UNL1       -0.0617
     20 H          10.2024   12.0959   -1.3289 H       1  UNL1        0.0618
     21 C           8.1640   12.7382   -1.4709 C.ar    1  UNL1       -0.0612
     22 H           8.1638   12.7517   -2.5516 H       1  UNL1        0.0618
     23 C           7.0188   13.0870   -0.7826 C.ar    1  UNL1       -0.0534
     24 H           6.1224   13.3758   -1.3130 H       1  UNL1        0.0624
@<TRIPOS>BOND
     1    22    21    1
     2    21    19   ar
     3    21    23   ar
     4    20    19    1
     5    24    23    1
     6    19    17   ar
     7    23    14   ar
     8     7     6    1
     9     9     8    1
    10     6     8    1
    11     6     4    2
    12     8    10    1
    13     5     4    1
    14     4     3    1
    15    17    18    1
    16    17    15   ar
    17    14    15   ar
    18    14     2    1
    19    10    11    1
    20    10    12    2
    21     3    12    1
    22     3     1    2
    23    12    13    1
    24    15    16    1
    25     2     1    2
