@<TRIPOS>MOLECULE
17,22
 48 51 0 0 0
SMALL
GASTEIGER

@<TRIPOS>ATOM
      1 F           9.4245    5.0732    4.6383 F       1  UNL1        0.0000
      2 F          12.0182    4.8813    5.0091 F       1  UNL1        0.0000
      3 F          13.6773    7.0238    4.5510 F       1  UNL1        0.0000
      4 F          12.5745    9.3844    3.6915 F       1  UNL1        0.0000
      5 F           9.9508    9.5863    3.3040 F       1  UNL1        0.0000
      6 F           8.4853    5.6115    1.5817 F       1  UNL1        0.0000
      7 F           8.5408    5.8924   -1.0643 F       1  UNL1        0.0000
      8 F           8.1585    8.3608   -2.2061 F       1  UNL1        0.0000
      9 F           7.7425   10.5227   -0.5802 F       1  UNL1        0.0000
     10 F           7.6652   10.2514    2.0518 F       1  UNL1        0.0000
     11 F           8.9367    8.5255    6.2189 F       1  UNL1        0.0000
     12 F           7.8354   10.4198    7.7225 F       1  UNL1        0.0000
     13 F           5.5901   11.7443    6.8847 F       1  UNL1        0.0000
     14 F           4.4524   11.0475    4.4901 F       1  UNL1        0.0000
     15 F           5.5354    9.1215    2.9919 F       1  UNL1        0.0000
     16 C           6.8940    6.2983    3.8148 C.3     1  UNL1        0.0000
     17 C           6.2548    6.3535    5.1476 C.3     1  UNL1        0.0000
     18 C           6.9077    5.8761    6.3001 C.2     1  UNL1        0.0000
     19 C           6.4363    6.1795    7.5702 C.2     1  UNL1        0.0000
     20 C           5.3005    6.9685    7.7363 C.2     1  UNL1        0.0000
     21 C           4.6014    7.4084    6.6157 C.2     1  UNL1        0.0000
     22 C           5.0509    7.0778    5.3341 C.3     1  UNL1        0.0000
     23 C           9.5388    7.3416    3.9277 C.ar    1  UNL1        0.0000
     24 C          10.1500    6.1753    4.3657 C.ar    1  UNL1        0.0000
     25 C          11.5196    6.0497    4.5790 C.ar    1  UNL1        0.0000
     26 C          12.3600    7.1277    4.3525 C.ar    1  UNL1        0.0000
     27 C          11.7956    8.3204    3.9174 C.ar    1  UNL1        0.0000
     28 C          10.4240    8.4009    3.7157 C.ar    1  UNL1        0.0000
     29 C           7.9895    7.8973    1.9532 C.ar    1  UNL1        0.0000
     30 C           8.2475    6.8396    1.0840 C.ar    1  UNL1        0.0000
     31 C           8.3030    6.9665   -0.2974 C.ar    1  UNL1        0.0000
     32 C           8.1171    8.2140   -0.8778 C.ar    1  UNL1        0.0000
     33 C           7.9017    9.3056   -0.0484 C.ar    1  UNL1        0.0000
     34 C           7.8506    9.1368    1.3337 C.ar    1  UNL1        0.0000
     35 C           7.3597    8.8194    4.4675 C.ar    1  UNL1        0.0000
     36 C           7.8715    9.1746    5.7107 C.ar    1  UNL1        0.0000
     37 C           7.3039   10.1504    6.5227 C.ar    1  UNL1        0.0000
     38 C           6.1615   10.8191    6.1064 C.ar    1  UNL1        0.0000
     39 C           5.5940   10.4707    4.8882 C.ar    1  UNL1        0.0000
     40 C           6.1885    9.4834    4.1146 C.ar    1  UNL1        0.0000
     41 B           7.9575    7.5979    3.5679 B       1  UNL1        0.0000
     42 H           7.4418    5.3729    3.6779 H       1  UNL1        0.0000
     43 H           6.1369    6.3726    3.0363 H       1  UNL1        0.0000
     44 H           7.8569    5.3710    6.1923 H       1  UNL1        0.0000
     45 H           7.0126    5.8849    8.4366 H       1  UNL1        0.0000
     46 H           5.0006    7.2902    8.7228 H       1  UNL1        0.0000
     47 H           3.7627    8.0840    6.7435 H       1  UNL1        0.0000
     48 H           4.5463    7.4850    4.4640 H       1  UNL1        0.0000
@<TRIPOS>BOND
     1     8    32    1
     2     7    31    1
     3    32    31   ar
     4    32    33   ar
     5     9    33    1
     6    31    30   ar
     7    33    34   ar
     8    30     6    1
     9    30    29   ar
    10    34    29   ar
    11    34    10    1
    12    29    41    1
    13    15    40    1
    14    43    16    1
    15     5    28    1
    16    41    16    1
    17    41    23    1
    18    41    35    1
    19    42    16    1
    20     4    27    1
    21    28    27   ar
    22    28    23   ar
    23    16    17    1
    24    27    26   ar
    25    23    24   ar
    26    40    35   ar
    27    40    39   ar
    28    26     3    1
    29    26    25   ar
    30    24    25   ar
    31    24     1    1
    32    48    22    1
    33    35    36   ar
    34    14    39    1
    35    25     2    1
    36    39    38   ar
    37    17    22    1
    38    17    18    1
    39    22    21    1
    40    36    11    1
    41    36    37   ar
    42    38    37   ar
    43    38    13    1
    44    44    18    1
    45    18    19    2
    46    37    12    1
    47    21    47    1
    48    21    20    2
    49    19    20    1
    50    19    45    1
    51    20    46    1
