@<TRIPOS>MOLECULE
1,6
 32 31 0 0 0
SMALL
GASTEIGER

@<TRIPOS>ATOM
      1 C           4.9607    2.9844    9.5482 C.2     1  UNL1       -0.0383
      2 C           5.5958    1.9029   10.0160 C.2     1  UNL1       -0.0575
      3 H           5.2167    0.8971    9.8630 H       1  UNL1        0.0621
      4 C           6.8556    1.9761   10.7538 C.2     1  UNL1       -0.0575
      5 H           7.2662    1.0196   11.0640 H       1  UNL1        0.0621
      6 C           7.4784    3.1311   11.0086 C.2     1  UNL1       -0.0383
      7 C           3.9759    3.4864    7.3459 C.3     1  UNL1       -0.0560
      8 H           4.4563    4.4629    7.3890 H       1  UNL1        0.0238
      9 H           3.0545    3.5765    6.7742 H       1  UNL1        0.0238
     10 H           4.6423    2.8068    6.8175 H       1  UNL1        0.0238
     11 C           3.0560    1.5585    8.6441 C.3     1  UNL1       -0.0560
     12 H           3.7231    0.8779    8.1201 H       1  UNL1        0.0238
     13 H           2.1241    1.6154    8.0859 H       1  UNL1        0.0238
     14 H           2.8413    1.1553    9.6305 H       1  UNL1        0.0238
     15 C           2.6590    3.8819    9.4467 C.3     1  UNL1       -0.0560
     16 H           2.4544    3.5316   10.4566 H       1  UNL1        0.0238
     17 H           1.7250    3.8948    8.8888 H       1  UNL1        0.0238
     18 H           3.0337    4.9042    9.5065 H       1  UNL1        0.0238
     19 C           3.6761    2.9571    8.7588 C.3     1  UNL1       -0.0124
     20 C           8.4763    3.6067   13.2189 C.3     1  UNL1       -0.0560
     21 H           7.8786    4.5112   13.3095 H       1  UNL1        0.0238
     22 H           9.4015    3.7481   13.7737 H       1  UNL1        0.0238
     23 H           7.9184    2.7898   13.6709 H       1  UNL1        0.0238
     24 C           9.5602    4.4633   11.1218 C.3     1  UNL1       -0.0560
     25 H           9.7610    4.2682   10.0686 H       1  UNL1        0.0238
     26 H          10.5127    4.5956   11.6314 H       1  UNL1        0.0238
     27 H           9.0038    5.3994   11.2016 H       1  UNL1        0.0238
     28 C           9.6557    2.0311   11.6723 C.3     1  UNL1       -0.0560
     29 H           9.1889    1.2064   12.2042 H       1  UNL1        0.0238
     30 H          10.6229    2.2237   12.1313 H       1  UNL1        0.0238
     31 H           9.8160    1.7364   10.6379 H       1  UNL1        0.0238
     32 C           8.7825    3.2917   11.7455 C.3     1  UNL1       -0.0124
@<TRIPOS>BOND
     1     9     7    1
     2    10     7    1
     3     7     8    1
     4     7    19    1
     5    13    11    1
     6    12    11    1
     7    11    19    1
     8    11    14    1
     9    19    15    1
    10    19     1    1
    11    17    15    1
    12    15    18    1
    13    15    16    1
    14     1     2    2
    15     3     2    1
    16     2     4    1
    17    25    24    1
    18    31    28    1
    19     4     6    2
    20     4     5    1
    21     6    32    1
    22    24    27    1
    23    24    26    1
    24    24    32    1
    25    28    32    1
    26    28    30    1
    27    28    29    1
    28    32    20    1
    29    20    21    1
    30    20    23    1
    31    20    22    1
