@<TRIPOS>MOLECULE
2,3
 34 34 0 0 0
SMALL
GASTEIGER

@<TRIPOS>ATOM
      1 SI          3.6292   11.6273   11.0558 Si      1  UNL1        0.0000
      2 C           4.5132    9.9935   11.3611 C.3     1  UNL1        0.0000
      3 C           5.9685    9.8835   11.3004 C.2     1  UNL1        0.0000
      4 C           6.3670    8.8211   12.1069 C.2     1  UNL1        0.0000
      5 C           5.2104    8.2375   12.6926 C.2     1  UNL1        0.0000
      6 C           4.0892    8.9422   12.2664 C.2     1  UNL1        0.0000
      7 C           6.8818   10.8969   10.6669 C.3     1  UNL1        0.0000
      8 H           7.1528   11.6631   11.3960 H       1  UNL1        0.0000
      9 H           6.4060   11.3925    9.8221 H       1  UNL1        0.0000
     10 H           7.8078   10.4396   10.3196 H       1  UNL1        0.0000
     11 C           7.7711    8.3946   12.4138 C.3     1  UNL1        0.0000
     12 H           8.4764    8.7836   11.6814 H       1  UNL1        0.0000
     13 H           7.8578    7.3075   12.4373 H       1  UNL1        0.0000
     14 H           8.0736    8.7660   13.3950 H       1  UNL1        0.0000
     15 C           5.2462    7.0829   13.6458 C.3     1  UNL1        0.0000
     16 H           5.6620    7.3913   14.6068 H       1  UNL1        0.0000
     17 H           5.8714    6.2764   13.2594 H       1  UNL1        0.0000
     18 H           4.2482    6.6888   13.8202 H       1  UNL1        0.0000
     19 C           2.6829    8.7234   12.7443 C.3     1  UNL1        0.0000
     20 H           2.5190    7.6824   13.0163 H       1  UNL1        0.0000
     21 H           1.9542    8.9849   11.9793 H       1  UNL1        0.0000
     22 H           2.4810    9.3324   13.6277 H       1  UNL1        0.0000
     23 C           3.5200   12.0002    9.1683 C.3     1  UNL1        0.0000
     24 H           4.5003   12.1470    8.7233 H       1  UNL1        0.0000
     25 H           2.9514   12.9081    8.9888 H       1  UNL1        0.0000
     26 H           3.0279   11.1930    8.6250 H       1  UNL1        0.0000
     27 C           1.8247   11.7385   11.6823 C.3     1  UNL1        0.0000
     28 H           1.1617   11.0345   11.1906 H       1  UNL1        0.0000
     29 H           1.4354   12.7338   11.4910 H       1  UNL1        0.0000
     30 H           1.7611   11.5637   12.7497 H       1  UNL1        0.0000
     31 C           4.5363   13.0982   11.8863 C.3     1  UNL1        0.0000
     32 H           4.9134   12.8209   12.8656 H       1  UNL1        0.0000
     33 H           3.8678   13.9434   12.0189 H       1  UNL1        0.0000
     34 H           5.3787   13.4400   11.2948 H       1  UNL1        0.0000
@<TRIPOS>BOND
     1    26    23    1
     2    24    23    1
     3    25    23    1
     4    23     1    1
     5     9     7    1
     6    10     7    1
     7     7     3    1
     8     7     8    1
     9     1     2    1
    10     1    27    1
    11     1    31    1
    12    28    27    1
    13    34    31    1
    14     3     2    1
    15     3     4    2
    16     2     6    1
    17    29    27    1
    18    12    11    1
    19    27    30    1
    20    31    33    1
    21    31    32    1
    22    21    19    1
    23     4    11    1
    24     4     5    1
    25     6     5    2
    26     6    19    1
    27    11    13    1
    28    11    14    1
    29     5    15    1
    30    19    20    1
    31    19    22    1
    32    17    15    1
    33    15    18    1
    34    15    16    1
