@<TRIPOS>MOLECULE
3,4
 25 25 0 0 0
SMALL
GASTEIGER

@<TRIPOS>ATOM
      1 C          19.8419    2.4334    5.6916 C.2     1  UNL1       -0.0477
      2 C          21.1884    2.6170    6.1874 C.2     1  UNL1       -0.0477
      3 C          21.8240    3.5478    5.4261 C.2     1  UNL1       -0.0584
      4 C          20.9177    3.9924    4.3270 C.3     1  UNL1        0.0231
      5 C          19.6563    3.2407    4.6151 C.2     1  UNL1       -0.0584
      6 C          18.8714    1.4775    6.3059 C.3     1  UNL1       -0.0395
      7 H          19.2522    0.4590    6.2348 H       1  UNL1        0.0278
      8 H          17.9078    1.5237    5.8074 H       1  UNL1        0.0278
      9 H          18.7246    1.7112    7.3600 H       1  UNL1        0.0278
     10 C          21.7910    1.8856    7.3424 C.3     1  UNL1       -0.0395
     11 H          21.9450    2.5580    8.1873 H       1  UNL1        0.0278
     12 H          22.7605    1.4839    7.0494 H       1  UNL1        0.0278
     13 H          21.1560    1.0653    7.6624 H       1  UNL1        0.0278
     14 C          23.1880    4.0998    5.6929 C.3     1  UNL1       -0.0424
     15 H          23.1949    4.6392    6.6420 H       1  UNL1        0.0275
     16 H          23.5051    4.7723    4.9008 H       1  UNL1        0.0275
     17 H          23.9076    3.2841    5.7671 H       1  UNL1        0.0275
     18 C          20.7473    5.5090    4.2388 C.3     1  UNL1       -0.0510
     19 H          20.0421    5.7824    3.4586 H       1  UNL1        0.0242
     20 H          21.6990    5.9902    4.0289 H       1  UNL1        0.0242
     21 H          20.3704    5.8844    5.1911 H       1  UNL1        0.0242
     22 C          18.4021    3.4644    3.8297 C.3     1  UNL1       -0.0424
     23 H          17.8866    4.3587    4.1849 H       1  UNL1        0.0275
     24 H          17.7227    2.6224    3.9329 H       1  UNL1        0.0275
     25 H          18.6424    3.5934    2.7782 H       1  UNL1        0.0275
@<TRIPOS>BOND
     1    25    22    1
     2    19    18    1
     3    22    24    1
     4    22    23    1
     5    22     5    1
     6    20    18    1
     7    18     4    1
     8    18    21    1
     9     4     5    1
    10     4     3    1
    11     5     1    2
    12    16    14    1
    13     3    14    1
    14     3     2    2
    15     1     2    1
    16     1     6    1
    17    14    17    1
    18    14    15    1
    19     8     6    1
    20     2    10    1
    21     7     6    1
    22     6     9    1
    23    12    10    1
    24    10    13    1
    25    10    11    1
