@<TRIPOS>MOLECULE
3,17
 51 52 0 0 0
SMALL
GASTEIGER

@<TRIPOS>ATOM
      1 SI         -0.3557    2.9290   18.5381 Si      1  UNL1        0.0000
      2 C          -0.4009    2.6184   16.6788 C.2     1  UNL1        0.0000
      3 C           0.5403    3.2016   15.7275 C.3     1  UNL1        0.0000
      4 C           0.2390    2.6238   14.4413 C.2     1  UNL1        0.0000
      5 C          -0.7630    1.6835   14.6303 C.2     1  UNL1        0.0000
      6 C          -1.1483    1.6840   15.9811 C.2     1  UNL1        0.0000
      7 C           0.8424    2.9981   13.1056 C.3     1  UNL1        0.0000
      8 C           1.5411    1.7693   12.5028 C.3     1  UNL1        0.0000
      9 C          -0.2745    3.4598   12.1584 C.3     1  UNL1        0.0000
     10 C           1.8686    4.1270   13.2403 C.3     1  UNL1        0.0000
     11 C          -0.1421    4.8005   18.8828 C.3     1  UNL1        0.0000
     12 C          -1.9291    2.2909   19.3970 C.3     1  UNL1        0.0000
     13 C           1.1835    2.0006   19.1049 C.2     1  UNL1        0.0000
     14 C           1.2852    0.6752   19.5201 C.2     1  UNL1        0.0000
     15 C           2.6397    0.3034   19.6290 C.2     1  UNL1        0.0000
     16 C           3.4113    1.4068   19.2671 C.2     1  UNL1        0.0000
     17 C           2.5365    2.4749   18.8957 C.3     1  UNL1        0.0000
     18 C           3.2034   -1.0402   20.0235 C.3     1  UNL1        0.0000
     19 C           4.0420   -1.5814   18.8547 C.3     1  UNL1        0.0000
     20 C           2.0926   -2.0413   20.3505 C.3     1  UNL1        0.0000
     21 C           4.0979   -0.8828   21.2604 C.3     1  UNL1        0.0000
     22 H           0.8427    4.2471   15.8305 H       1  UNL1        0.0000
     23 H          -1.1967    1.0582   13.8668 H       1  UNL1        0.0000
     24 H          -1.9230    1.0675   16.4063 H       1  UNL1        0.0000
     25 H           1.9716    2.0087   11.5315 H       1  UNL1        0.0000
     26 H           0.8322    0.9550   12.3721 H       1  UNL1        0.0000
     27 H           2.3424    1.4323   13.1663 H       1  UNL1        0.0000
     28 H           0.1363    3.7423   11.1905 H       1  UNL1        0.0000
     29 H          -0.7921    4.3175   12.5811 H       1  UNL1        0.0000
     30 H          -1.0017    2.6671   12.0076 H       1  UNL1        0.0000
     31 H           2.2917    4.3606   12.2644 H       1  UNL1        0.0000
     32 H           2.6841    3.8362   13.9080 H       1  UNL1        0.0000
     33 H           1.3989    5.0286   13.6273 H       1  UNL1        0.0000
     34 H          -0.9952    5.3643   18.5200 H       1  UNL1        0.0000
     35 H           0.7452    5.1958   18.3950 H       1  UNL1        0.0000
     36 H          -0.0458    4.9933   19.9463 H       1  UNL1        0.0000
     37 H          -2.8081    2.8019   19.0205 H       1  UNL1        0.0000
     38 H          -1.8790    2.4536   20.4679 H       1  UNL1        0.0000
     39 H          -2.0660    1.2288   19.2292 H       1  UNL1        0.0000
     40 H           0.4396    0.0548   19.7645 H       1  UNL1        0.0000
     41 H           4.4846    1.4887   19.3567 H       1  UNL1        0.0000
     42 H           2.8126    3.5278   18.9795 H       1  UNL1        0.0000
     43 H           4.4106   -2.5825   19.0751 H       1  UNL1        0.0000
     44 H           4.8961   -0.9342   18.6663 H       1  UNL1        0.0000
     45 H           3.4404   -1.6216   17.9471 H       1  UNL1        0.0000
     46 H           1.4825   -1.6752   21.1725 H       1  UNL1        0.0000
     47 H           2.5242   -2.9969   20.6448 H       1  UNL1        0.0000
     48 H           1.4483   -2.2083   19.4898 H       1  UNL1        0.0000
     49 H           3.5192   -0.4862   22.0913 H       1  UNL1        0.0000
     50 H           4.9171   -0.1977   21.0592 H       1  UNL1        0.0000
     51 H           4.5164   -1.8440   21.5552 H       1  UNL1        0.0000
@<TRIPOS>BOND
     1    28     9    1
     2    25     8    1
     3    30     9    1
     4     9    29    1
     5     9     7    1
     6    31    10    1
     7    26     8    1
     8     8     7    1
     9     8    27    1
    10     7    10    1
    11     7     4    1
    12    10    33    1
    13    10    32    1
    14    23     5    1
    15     4     5    2
    16     4     3    1
    17     5     6    1
    18     3    22    1
    19     3     2    1
    20     6    24    1
    21     6     2    2
    22     2     1    1
    23    45    19    1
    24    35    11    1
    25    34    11    1
    26     1    11    1
    27     1    13    1
    28     1    12    1
    29    44    19    1
    30    19    43    1
    31    19    18    1
    32    11    36    1
    33    17    42    1
    34    17    13    1
    35    17    16    1
    36    37    12    1
    37    13    14    2
    38    39    12    1
    39    16    41    1
    40    16    15    2
    41    12    38    1
    42    48    20    1
    43    14    15    1
    44    14    40    1
    45    15    18    1
    46    18    20    1
    47    18    21    1
    48    20    47    1
    49    20    46    1
    50    50    21    1
    51    21    51    1
    52    21    49    1
