@<TRIPOS>MOLECULE
2,3
 10 10 0 0 0
SMALL
GASTEIGER

@<TRIPOS>ATOM
      1 C           9.3534    9.7135   16.4184 C.2     1  UNL1       -0.0763
      2 C           9.7072    8.5659   15.6860 C.2     1  UNL1       -0.0654
      3 C           8.7299    8.3770   14.6819 C.2     1  UNL1       -0.0654
      4 C           7.7878    9.4082   14.8052 C.2     1  UNL1       -0.0763
      5 C           8.1734   10.2282   15.8727 C.3     1  UNL1        0.0054
      6 H           9.8704   10.0935   17.2862 H       1  UNL1        0.0578
      7 H          10.4909    7.8674   15.9357 H       1  UNL1        0.0615
      8 H           8.6502    7.5174   14.0365 H       1  UNL1        0.0615
      9 H           6.8919    9.5188   14.2162 H       1  UNL1        0.0578
     10 H           7.6272   11.0828   16.2370 H       1  UNL1        0.0394
@<TRIPOS>BOND
     1     8     3    1
     2     9     4    1
     3     3     4    2
     4     3     2    1
     5     4     5    1
     6     2     7    1
     7     2     1    2
     8     5    10    1
     9     5     1    1
    10     1     6    1
