@<TRIPOS>MOLECULE
1,4
 36 38 0 0 0
SMALL
GASTEIGER

@<TRIPOS>ATOM
      1 C           3.3376    1.3419    4.3056 C.3     1  UNL1       -0.0338
      2 C           3.0691    0.0044    5.0515 C.3     1  UNL1        0.0461
      3 C           3.9144   -0.9851    4.2663 C.ar    1  UNL1       -0.0248
      4 C           4.0050   -0.6581    2.9046 C.ar    1  UNL1       -0.0132
      5 C           4.8857   -1.4268    2.1408 C.ar    1  UNL1       -0.0537
      6 C           5.5892   -2.4920    2.6874 C.ar    1  UNL1       -0.0612
      7 C           5.4177   -2.8306    4.0178 C.ar    1  UNL1       -0.0614
      8 C           4.5850   -2.0650    4.8180 C.ar    1  UNL1       -0.0568
      9 C           1.5971   -0.3723    4.9404 C.ar    1  UNL1       -0.0325
     10 C           0.5901    0.5949    5.0053 C.ar    1  UNL1       -0.0574
     11 C          -0.7463    0.2252    4.9973 C.ar    1  UNL1       -0.0615
     12 C          -1.1059   -1.1098    4.9155 C.ar    1  UNL1       -0.0617
     13 C          -0.1170   -2.0782    4.8563 C.ar    1  UNL1       -0.0615
     14 C           1.2178   -1.7135    4.8779 C.ar    1  UNL1       -0.0574
     15 C           3.4996    0.1028    6.5051 C.ar    1  UNL1       -0.0325
     16 C           4.8483    0.3006    6.7916 C.ar    1  UNL1       -0.0574
     17 C           5.2870    0.4201    8.0960 C.ar    1  UNL1       -0.0615
     18 C           4.3844    0.3476    9.1442 C.ar    1  UNL1       -0.0617
     19 C           3.0431    0.1520    8.8716 C.ar    1  UNL1       -0.0615
     20 C           2.6037    0.0293    7.5637 C.ar    1  UNL1       -0.0574
     21 H           4.4184    1.5382    4.4107 H       1  UNL1        0.0281
     22 H           2.8549    2.1591    4.8650 H       1  UNL1        0.0281
     23 H           5.0557   -1.1734    1.0989 H       1  UNL1        0.0624
     24 H           6.2710   -3.0602    2.0706 H       1  UNL1        0.0618
     25 H           5.9477   -3.6724    4.4389 H       1  UNL1        0.0618
     26 H           4.4751   -2.2969    5.8686 H       1  UNL1        0.0621
     27 H           0.8329    1.6424    5.1111 H       1  UNL1        0.0621
     28 H          -1.5071    0.9892    5.0590 H       1  UNL1        0.0618
     29 H          -2.1476   -1.3949    4.9100 H       1  UNL1        0.0618
     30 H          -0.3862   -3.1233    4.8066 H       1  UNL1        0.0618
     31 H           1.9790   -2.4802    4.8613 H       1  UNL1        0.0621
     32 H           5.5623    0.3514    5.9825 H       1  UNL1        0.0621
     33 H           6.3379    0.5705    8.2960 H       1  UNL1        0.0618
     34 H           4.7255    0.4418   10.1646 H       1  UNL1        0.0618
     35 H           2.3292    0.0924    9.6805 H       1  UNL1        0.0618
     36 H           1.5519   -0.1267    7.3761 H       1  UNL1        0.0621
@<TRIPOS>BOND
     1    23     5    1
     2    24     6    1
     3     5     6   ar
     4     5     4   ar
     5     6     7   ar
     6     4     3   ar
     7     7    25    1
     8     7     8   ar
     9     3     8   ar
    10     3     2    1
    11     1    21    1
    12     1    22    1
    13     1     2    1
    14    30    13    1
    15     8    26    1
    16    13    14   ar
    17    13    12   ar
    18    31    14    1
    19    14     9   ar
    20    29    12    1
    21    12    11   ar
    22     9    10   ar
    23     9     2    1
    24    11    10   ar
    25    11    28    1
    26    10    27    1
    27     2    15    1
    28    32    16    1
    29    15    16   ar
    30    15    20   ar
    31    16    17   ar
    32    36    20    1
    33    20    19   ar
    34    17    33    1
    35    17    18   ar
    36    19    18   ar
    37    19    35    1
    38    18    34    1
