@<TRIPOS>MOLECULE
1,2
 6 5 0 0 0
SMALL
GASTEIGER

@<TRIPOS>ATOM
      1 C           1.4289    0.1547    1.8051 C.3     1  UNL1       -0.0531
      2 C           2.1877    1.0478    2.5877 C.3     1  UNL1       -0.0531
      3 H           0.9634   -0.6998    2.2893 H       1  UNL1        0.0265
      4 H           1.7246   -0.0289    0.7732 H       1  UNL1        0.0265
      5 H           2.2843    0.8633    3.6541 H       1  UNL1        0.0265
      6 H           3.0531    1.5363    2.1430 H       1  UNL1        0.0265
@<TRIPOS>BOND
     1     4     1    1
     2     1     3    1
     3     1     2    1
     4     6     2    1
     5     2     5    1
