@<TRIPOS>MOLECULE
4,12
 52 53 0 0 0
SMALL
GASTEIGER

@<TRIPOS>ATOM
      1 SI         18.6671    2.0621   12.0023 Si      1  UNL1        0.0000
      2 SI         13.5101    4.9297    9.0681 Si      1  UNL1        0.0000
      3 C          13.8379    1.8752    9.8274 C.ar    1  UNL1        0.0000
      4 C          14.8364    4.1582   10.1536 C.2     1  UNL1        0.0000
      5 C          11.6837    4.7725    9.6467 C.3     1  UNL1        0.0000
      6 H          11.3385    3.7507    9.5286 H       1  UNL1        0.0000
      7 H          11.0348    5.4111    9.0548 H       1  UNL1        0.0000
      8 H          11.5441    5.0429   10.6891 H       1  UNL1        0.0000
      9 C          14.8751    2.8144   10.3300 C.2     1  UNL1        0.0000
     10 C          14.0115    1.2187    8.6140 C.ar    1  UNL1        0.0000
     11 H          14.8993    1.4154    8.0306 H       1  UNL1        0.0000
     12 C          17.0855    2.8979   11.4252 C.2     1  UNL1        0.0000
     13 C          18.5740    0.6635   13.3139 C.3     1  UNL1        0.0000
     14 H          19.5696    0.3436   13.6068 H       1  UNL1        0.0000
     15 H          18.0522   -0.2019   12.9194 H       1  UNL1        0.0000
     16 H          18.0535    0.9766   14.2133 H       1  UNL1        0.0000
     17 C          15.9517    0.6856   11.0910 C.ar    1  UNL1        0.0000
     18 C          16.0286    2.1672   10.9945 C.2     1  UNL1        0.0000
     19 C          13.0598    0.3287    8.1530 C.ar    1  UNL1        0.0000
     20 H          13.2056   -0.1746    7.2077 H       1  UNL1        0.0000
     21 C          16.5210   -0.1212   10.1129 C.ar    1  UNL1        0.0000
     22 H          17.0247    0.3416    9.2770 H       1  UNL1        0.0000
     23 C          11.9215    0.0786    8.9008 C.ar    1  UNL1        0.0000
     24 H          11.1793   -0.6199    8.5424 H       1  UNL1        0.0000
     25 C          11.7406    0.7261   10.1106 C.ar    1  UNL1        0.0000
     26 H          10.8544    0.5334   10.6989 H       1  UNL1        0.0000
     27 C          12.6925    1.6177   10.5710 C.ar    1  UNL1        0.0000
     28 H          12.5512    2.1191   11.5175 H       1  UNL1        0.0000
     29 C          15.2944    0.0839   12.1578 C.ar    1  UNL1        0.0000
     30 H          14.8449    0.7020   12.9228 H       1  UNL1        0.0000
     31 C          13.5111    4.2742    7.2625 C.3     1  UNL1        0.0000
     32 H          13.0179    3.3100    7.2026 H       1  UNL1        0.0000
     33 H          14.5204    4.1475    6.8817 H       1  UNL1        0.0000
     34 H          12.9897    4.9548    6.5957 H       1  UNL1        0.0000
     35 C          13.9162    6.8118    8.9412 C.3     1  UNL1        0.0000
     36 H          13.0471    7.4216    9.1659 H       1  UNL1        0.0000
     37 H          14.2314    7.0764    7.9365 H       1  UNL1        0.0000
     38 H          14.7154    7.0953    9.6272 H       1  UNL1        0.0000
     39 C          15.2152   -1.2934   12.2493 C.ar    1  UNL1        0.0000
     40 H          14.7039   -1.7492   13.0852 H       1  UNL1        0.0000
     41 C          16.4407   -1.4982   10.2026 C.ar    1  UNL1        0.0000
     42 H          16.8855   -2.1154    9.4348 H       1  UNL1        0.0000
     43 C          15.7879   -2.0886   11.2714 C.ar    1  UNL1        0.0000
     44 H          15.7236   -3.1647   11.3409 H       1  UNL1        0.0000
     45 C          19.7761    3.4500   12.7523 C.3     1  UNL1        0.0000
     46 H          20.7453    3.4839   12.2640 H       1  UNL1        0.0000
     47 H          19.9690    3.2802   13.8070 H       1  UNL1        0.0000
     48 H          19.3099    4.4292   12.6412 H       1  UNL1        0.0000
     49 C          19.6645    1.3098   10.5400 C.3     1  UNL1        0.0000
     50 H          20.7180    1.2224   10.7892 H       1  UNL1        0.0000
     51 H          19.5877    1.9156    9.6420 H       1  UNL1        0.0000
     52 H          19.3028    0.3160   10.2994 H       1  UNL1        0.0000
@<TRIPOS>BOND
     1    34    31    1
     2    33    31    1
     3    32    31    1
     4    20    19    1
     5    31     2    1
     6    37    35    1
     7    11    10    1
     8    19    10   ar
     9    19    23   ar
    10    24    23    1
    11    10     3   ar
    12    23    25   ar
    13    35     2    1
    14    35    36    1
    15    35    38    1
    16     7     5    1
    17     2     5    1
    18     2     4    1
    19    22    21    1
    20    42    41    1
    21     6     5    1
    22    51    49    1
    23     5     8    1
    24     3     9    1
    25     3    27   ar
    26    25    27   ar
    27    25    26    1
    28    21    41   ar
    29    21    17   ar
    30     4     9    2
    31    41    43   ar
    32    52    49    1
    33     9    18    1
    34    49    50    1
    35    49     1    1
    36    27    28    1
    37    18    17    1
    38    18    12    2
    39    17    29   ar
    40    43    44    1
    41    43    39   ar
    42    12     1    1
    43     1    45    1
    44     1    13    1
    45    29    39   ar
    46    29    30    1
    47    39    40    1
    48    46    45    1
    49    48    45    1
    50    45    47    1
    51    15    13    1
    52    13    14    1
    53    13    16    1
