@<TRIPOS>MOLECULE
3,19
 48 50 0 0 0
SMALL
GASTEIGER

@<TRIPOS>ATOM
      1 SI          2.3615    0.3057    8.6884 Si      1  UNL1        0.0000
      2 P           3.0866   -0.8156   11.5556 P.3     1  UNL1        0.0000
      3 C           1.7974   -0.3525   10.4147 C.3     1  UNL1        0.0000
      4 C           2.6681    2.1914    8.6869 C.3     1  UNL1        0.0000
      5 C           0.9506   -0.1166    7.4783 C.3     1  UNL1        0.0000
      6 C           3.9025   -0.6584    8.1002 C.3     1  UNL1        0.0000
      7 C           4.1592   -2.1715   11.0258 C.ar    1  UNL1        0.0000
      8 C           5.5460   -2.0940   11.0841 C.ar    1  UNL1        0.0000
      9 C           6.3073   -3.1770   10.6803 C.ar    1  UNL1        0.0000
     10 C           5.6910   -4.3306   10.2234 C.ar    1  UNL1        0.0000
     11 C           4.3071   -4.4095   10.1732 C.ar    1  UNL1        0.0000
     12 C           3.5388   -3.3332   10.5732 C.ar    1  UNL1        0.0000
     13 C           4.1579    0.5164   12.1498 C.ar    1  UNL1        0.0000
     14 C           4.8765    1.2992   11.2492 C.ar    1  UNL1        0.0000
     15 C           5.6921    2.3140   11.7167 C.ar    1  UNL1        0.0000
     16 C           5.8016    2.5486   13.0791 C.ar    1  UNL1        0.0000
     17 C           5.1024    1.7590   13.9777 C.ar    1  UNL1        0.0000
     18 C           4.2839    0.7422   13.5179 C.ar    1  UNL1        0.0000
     19 C           0.8222   -0.8054   13.0114 C.ar    1  UNL1        0.0000
     20 C           2.0962   -1.3874   12.9335 C.ar    1  UNL1        0.0000
     21 C           2.5783   -2.2983   13.8698 C.ar    1  UNL1        0.0000
     22 C           1.7822   -2.6521   14.9408 C.ar    1  UNL1        0.0000
     23 C           0.5330   -2.0654   15.0716 C.ar    1  UNL1        0.0000
     24 C           0.0691   -1.1593   14.1299 C.ar    1  UNL1        0.0000
     25 H           1.3607   -1.3436   10.1913 H       1  UNL1        0.0000
     26 H           2.9483    2.5842    9.6585 H       1  UNL1        0.0000
     27 H           1.7701    2.7122    8.3702 H       1  UNL1        0.0000
     28 H           3.4535    2.4549    7.9849 H       1  UNL1        0.0000
     29 H           0.8596   -1.1882    7.3300 H       1  UNL1        0.0000
     30 H           1.1316    0.3336    6.5081 H       1  UNL1        0.0000
     31 H          -0.0070    0.2475    7.8378 H       1  UNL1        0.0000
     32 H           4.7683   -0.5452    8.7452 H       1  UNL1        0.0000
     33 H           4.1894   -0.3206    7.1096 H       1  UNL1        0.0000
     34 H           3.6929   -1.7219    8.0307 H       1  UNL1        0.0000
     35 H           6.0259   -1.1949   11.4445 H       1  UNL1        0.0000
     36 H           7.3842   -3.1202   10.7238 H       1  UNL1        0.0000
     37 H           6.2899   -5.1712    9.9088 H       1  UNL1        0.0000
     38 H           3.8286   -5.3109    9.8217 H       1  UNL1        0.0000
     39 H           2.4585   -3.3849   10.5429 H       1  UNL1        0.0000
     40 H           4.7913    1.1128   10.1900 H       1  UNL1        0.0000
     41 H           6.2441    2.9230   11.0170 H       1  UNL1        0.0000
     42 H           6.4359    3.3435   13.4400 H       1  UNL1        0.0000
     43 H           5.1952    1.9349   15.0387 H       1  UNL1        0.0000
     44 H           3.7424    0.1207   14.2179 H       1  UNL1        0.0000
     45 H           3.5695   -2.7155   13.7475 H       1  UNL1        0.0000
     46 H           2.1327   -3.3630   15.6729 H       1  UNL1        0.0000
     47 H          -0.0928   -2.3144   15.9160 H       1  UNL1        0.0000
     48 H          -0.9090   -0.7286   14.2895 H       1  UNL1        0.0000
@<TRIPOS>BOND
     1    30     5    1
     2    33     6    1
     3    29     5    1
     4     5    31    1
     5     5     1    1
     6    28     4    1
     7    34     6    1
     8     6     1    1
     9     6    32    1
    10    27     4    1
    11     4     1    1
    12     4    26    1
    13     1     3    1
    14    38    11    1
    15    37    10    1
    16    11    10   ar
    17    11    12   ar
    18    40    14    1
    19    25     3    1
    20    10     9   ar
    21     3     2    1
    22    39    12    1
    23    12     7   ar
    24     9    36    1
    25     9     8   ar
    26    41    15    1
    27     7     8   ar
    28     7     2    1
    29     8    35    1
    30    14    15   ar
    31    14    13   ar
    32     2    13    1
    33     2    20    1
    34    15    16   ar
    35    13    18   ar
    36    20    19   ar
    37    20    21   ar
    38    19    24   ar
    39    16    42    1
    40    16    17   ar
    41    18    17   ar
    42    18    44    1
    43    45    21    1
    44    21    22   ar
    45    17    43    1
    46    24    48    1
    47    24    23   ar
    48    22    23   ar
    49    22    46    1
    50    23    47    1
