@<TRIPOS>MOLECULE
1,19
 23 24 0 0 0
SMALL
GASTEIGER

@<TRIPOS>ATOM
      1 C           3.4841    5.1266    5.9545 C.3     1  UNL1       -0.0528
      2 H           2.7443    4.3318    6.1449 H       1  UNL1        0.0265
      3 H           4.4000    4.8416    6.5064 H       1  UNL1        0.0265
      4 C           2.9642    6.4240    6.5950 C.3     1  UNL1       -0.0497
      5 H           2.8919    6.3364    7.6919 H       1  UNL1        0.0268
      6 H           1.9509    6.6334    6.2310 H       1  UNL1        0.0268
      7 C           3.8948    7.6044    6.2563 C.3     1  UNL1       -0.0348
      8 H           4.7822    7.5176    6.8994 H       1  UNL1        0.0306
      9 C           3.1969    8.9562    6.4779 C.3     1  UNL1       -0.0377
     10 H           2.5983    8.9969    7.3887 H       1  UNL1        0.0304
     11 C           4.2458   10.0724    6.3871 C.3     1  UNL1       -0.0497
     12 H           5.1300    9.8404    6.9809 H       1  UNL1        0.0268
     13 H           3.8386   11.0167    6.7511 H       1  UNL1        0.0268
     14 C           4.5549   10.1428    4.8783 C.3     1  UNL1       -0.0497
     15 H           4.2533   11.1073    4.4638 H       1  UNL1        0.0268
     16 H           5.6145   10.0060    4.6623 H       1  UNL1        0.0268
     17 C           3.6930    9.0053    4.2976 C.3     1  UNL1       -0.0374
     18 H           3.5400    9.1238    3.2217 H       1  UNL1        0.0304
     19 C           4.2968    7.6518    4.7446 C.3     1  UNL1       -0.0318
     20 H           5.3968    7.7686    4.6968 H       1  UNL1        0.0309
     21 C           2.4398    9.1361    5.1627 C.3     1  UNL1       -0.0468
     22 H           1.9650   10.1141    5.0801 H       1  UNL1        0.0271
     23 H           1.7015    8.3583    4.9755 H       1  UNL1        0.0271
@<TRIPOS>BOND
     1    18    17    1
     2    17    19    1
     3    17    14    1
     4    17    21    1
     5    15    14    1
     6    16    14    1
     7    20    19    1
     8    19     7    1
     9    14    11    1
    10    23    21    1
    11    22    21    1
    12    21     9    1
    13     1     2    1
    14     1     3    1
    15     1     4    1
    16     6     4    1
    17     7     9    1
    18     7     4    1
    19     7     8    1
    20    11     9    1
    21    11    13    1
    22    11    12    1
    23     9    10    1
    24     4     5    1
