@<TRIPOS>MOLECULE
3,4
 50 54 0 0 0
SMALL
GASTEIGER

@<TRIPOS>ATOM
      1 C           1.5935    9.6825    4.7619 C.2     1  UNL1       -0.0488
      2 C           1.8011    8.9172    3.6013 C.2     1  UNL1       -0.0126
      3 C           3.0254    8.1937    3.7690 C.2     1  UNL1       -0.0162
      4 C           3.5658    8.5469    5.0675 C.3     1  UNL1        0.0648
      5 C           2.6536    9.4861    5.6638 C.2     1  UNL1       -0.0233
      6 C           0.9552    8.9911    2.4092 C.ar    1  UNL1       -0.0176
      7 C           1.4946    8.9765    1.1222 C.ar    1  UNL1       -0.0540
      8 C           0.6737    9.0560    0.0133 C.ar    1  UNL1       -0.0612
      9 C          -0.6998    9.1610    0.1615 C.ar    1  UNL1       -0.0617
     10 C          -1.2460    9.2041    1.4335 C.ar    1  UNL1       -0.0612
     11 C          -0.4290    9.1251    2.5446 C.ar    1  UNL1       -0.0540
     12 C           3.7530    7.4596    2.7159 C.ar    1  UNL1       -0.0201
     13 C           5.0723    7.7869    2.3988 C.ar    1  UNL1       -0.0543
     14 C           5.7402    7.1142    1.3923 C.ar    1  UNL1       -0.0612
     15 C           5.1040    6.1148    0.6751 C.ar    1  UNL1       -0.0617
     16 C           3.7886    5.7934    0.9683 C.ar    1  UNL1       -0.0612
     17 C           3.1192    6.4552    1.9797 C.ar    1  UNL1       -0.0543
     18 C           4.9639    8.3015    5.4681 C.ar    1  UNL1       -0.0310
     19 C           5.7648    9.3620    5.8979 C.ar    1  UNL1       -0.0574
     20 C           7.0884    9.1529    6.2361 C.ar    1  UNL1       -0.0615
     21 C           7.6441    7.8876    6.1387 C.ar    1  UNL1       -0.0617
     22 C           6.8641    6.8298    5.6997 C.ar    1  UNL1       -0.0615
     23 C           5.5364    7.0287    5.3686 C.ar    1  UNL1       -0.0574
     24 C           2.7962   10.1355    6.9621 C.ar    1  UNL1       -0.0206
     25 C           2.2338   11.3935    7.1915 C.ar    1  UNL1       -0.0543
     26 C           2.3611   12.0154    8.4183 C.ar    1  UNL1       -0.0612
     27 C           3.0537   11.3993    9.4477 C.ar    1  UNL1       -0.0617
     28 C           3.6145   10.1493    9.2381 C.ar    1  UNL1       -0.0612
     29 C           3.4849    9.5224    8.0143 C.ar    1  UNL1       -0.0543
     30 H           0.7669   10.3559    4.9060 H       1  UNL1        0.0627
     31 H           2.5642    8.9200    0.9916 H       1  UNL1        0.0624
     32 H           1.1106    9.0415   -0.9748 H       1  UNL1        0.0618
     33 H          -1.3383    9.2181   -0.7077 H       1  UNL1        0.0618
     34 H          -2.3145    9.2961    1.5641 H       1  UNL1        0.0618
     35 H          -0.8702    9.1590    3.5301 H       1  UNL1        0.0624
     36 H           5.5678    8.5831    2.9338 H       1  UNL1        0.0624
     37 H           6.7620    7.3782    1.1619 H       1  UNL1        0.0618
     38 H           5.6284    5.5931   -0.1113 H       1  UNL1        0.0618
     39 H           3.2813    5.0196    0.4118 H       1  UNL1        0.0618
     40 H           2.0848    6.2047    2.1877 H       1  UNL1        0.0624
     41 H           5.3415   10.3538    5.9588 H       1  UNL1        0.0621
     42 H           7.6912    9.9844    6.5706 H       1  UNL1        0.0618
     43 H           8.6789    7.7278    6.4018 H       1  UNL1        0.0618
     44 H           7.2879    5.8401    5.6189 H       1  UNL1        0.0618
     45 H           4.9408    6.1821    5.0308 H       1  UNL1        0.0621
     46 H           1.7093   11.8911    6.3899 H       1  UNL1        0.0624
     47 H           1.9220   12.9906    8.5720 H       1  UNL1        0.0618
     48 H           3.1558   11.8879   10.4054 H       1  UNL1        0.0618
     49 H           4.1510    9.6562   10.0358 H       1  UNL1        0.0618
     50 H           3.9270    8.5436    7.8713 H       1  UNL1        0.0624
@<TRIPOS>BOND
     1    32     8    1
     2    33     9    1
     3    38    15    1
     4     8     9   ar
     5     8     7   ar
     6     9    10   ar
     7    39    16    1
     8    15    16   ar
     9    15    14   ar
    10    16    17   ar
    11    31     7    1
    12     7     6   ar
    13    37    14    1
    14    14    13   ar
    15    10    34    1
    16    10    11   ar
    17    17    40    1
    18    17    12   ar
    19    13    12   ar
    20    13    36    1
    21     6    11   ar
    22     6     2    1
    23    11    35    1
    24    12     3    1
    25     2     3    2
    26     2     1    1
    27     3     4    1
    28     1    30    1
    29     1     5    2
    30    45    23    1
    31     4    18    1
    32     4     5    1
    33    23    18   ar
    34    23    22   ar
    35    18    19   ar
    36    44    22    1
    37     5    24    1
    38    22    21   ar
    39    19    41    1
    40    19    20   ar
    41    21    20   ar
    42    21    43    1
    43    20    42    1
    44    46    25    1
    45    24    25   ar
    46    24    29   ar
    47    25    26   ar
    48    50    29    1
    49    29    28   ar
    50    26    47    1
    51    26    27   ar
    52    28    27   ar
    53    28    49    1
    54    27    48    1
