@<TRIPOS>MOLECULE
4,5
 45 45 0 0 0
SMALL
GASTEIGER

@<TRIPOS>ATOM
      1 SI          5.5120    8.4592    3.5391 Si      1  UNL1        0.0000
      2 SI          7.2588    5.1025    7.9017 Si      1  UNL1        0.0000
      3 SI          3.5637    4.4908    6.9609 Si      1  UNL1        0.0000
      4 C           7.8366    3.7123    6.7500 C.3     1  UNL1        0.0000
      5 C           6.1448    5.8480    6.5575 C.3     1  UNL1        0.0000
      6 C           6.6472    6.7855    5.6391 C.3     1  UNL1        0.0000
      7 H           7.4797    7.4495    5.8302 H       1  UNL1        0.0000
      8 C           5.7895    6.8698    4.5045 C.3     1  UNL1        0.0000
      9 C           4.7660    5.9256    4.7322 C.3     1  UNL1        0.0000
     10 H           3.8742    5.8535    4.1270 H       1  UNL1        0.0000
     11 C           4.9710    5.2470    5.9648 C.3     1  UNL1        0.0000
     12 C           7.1333    9.4188    3.2081 C.3     1  UNL1        0.0000
     13 H           7.7937    8.9314    2.4990 H       1  UNL1        0.0000
     14 H           7.6919    9.5775    4.1251 H       1  UNL1        0.0000
     15 H           6.8987   10.3981    2.8029 H       1  UNL1        0.0000
     16 C           4.5118    8.2075    1.9343 C.3     1  UNL1        0.0000
     17 H           4.1748    9.1693    1.5601 H       1  UNL1        0.0000
     18 H           3.6265    7.6053    2.1117 H       1  UNL1        0.0000
     19 H           5.0796    7.7329    1.1427 H       1  UNL1        0.0000
     20 C           4.4586    9.5591    4.7020 C.3     1  UNL1        0.0000
     21 H           4.2665   10.5335    4.2634 H       1  UNL1        0.0000
     22 H           4.9552    9.7186    5.6544 H       1  UNL1        0.0000
     23 H           3.4982    9.0981    4.9116 H       1  UNL1        0.0000
     24 C           8.5114    6.4741    8.3687 C.3     1  UNL1        0.0000
     25 H           9.2171    6.1213    9.1123 H       1  UNL1        0.0000
     26 H           7.9937    7.3282    8.7948 H       1  UNL1        0.0000
     27 H           9.0770    6.8210    7.5135 H       1  UNL1        0.0000
     28 C           6.4530    4.6939    9.5898 C.3     1  UNL1        0.0000
     29 H           5.5570    4.0946    9.5102 H       1  UNL1        0.0000
     30 H           6.1962    5.6023   10.1253 H       1  UNL1        0.0000
     31 H           7.1618    4.1479   10.2043 H       1  UNL1        0.0000
     32 C           3.9695    2.8243    7.8256 C.3     1  UNL1        0.0000
     33 H           3.5410    1.9906    7.2815 H       1  UNL1        0.0000
     34 H           3.5245    2.8110    8.8152 H       1  UNL1        0.0000
     35 H           5.0311    2.6324    7.9441 H       1  UNL1        0.0000
     36 C           2.0451    4.1672    5.8467 C.3     1  UNL1        0.0000
     37 H           1.1656    4.0341    6.4676 H       1  UNL1        0.0000
     38 H           2.1495    3.2659    5.2522 H       1  UNL1        0.0000
     39 H           1.8392    4.9949    5.1765 H       1  UNL1        0.0000
     40 C           3.0724    5.7858    8.2783 C.3     1  UNL1        0.0000
     41 H           2.6985    6.6923    7.8119 H       1  UNL1        0.0000
     42 H           3.9193    6.0643    8.8961 H       1  UNL1        0.0000
     43 H           2.2929    5.4067    8.9319 H       1  UNL1        0.0000
     44 H           7.4766    2.7439    7.1201 H       1  UNL1        0.0000
     45 H           8.9285    3.6375    6.7376 H       1  UNL1        0.0000
@<TRIPOS>BOND
     1    19    16    1
     2    17    16    1
     3    16    18    1
     4    16     1    1
     5    13    12    1
     6    15    12    1
     7    12     1    1
     8    12    14    1
     9     1     8    1
    10     1    20    1
    11    10     9    1
    12    21    20    1
    13     8     9    1
    14     8     6    1
    15    20    23    1
    16    20    22    1
    17     9    11    1
    18    39    36    1
    19    38    36    1
    20     6     7    1
    21     6     5    1
    22    36    37    1
    23    36     3    1
    24    11     5    1
    25    11     3    1
    26     5     2    1
    27    45     4    1
    28     4    44    1
    29     4     2    1
    30     3    32    1
    31     3    40    1
    32    33    32    1
    33    27    24    1
    34    41    40    1
    35    32    35    1
    36    32    34    1
    37     2    24    1
    38     2    28    1
    39    40    42    1
    40    40    43    1
    41    24    26    1
    42    24    25    1
    43    29    28    1
    44    28    30    1
    45    28    31    1
