@<TRIPOS>MOLECULE
2,15
 45 48 0 0 0
SMALL
GASTEIGER

@<TRIPOS>ATOM
      1 SI         -2.9128    4.9646   12.3330 Si      1  UNL1        0.0000
      2 C          -1.8490    2.7464   12.2403 C.2     1  UNL1        0.0000
      3 C          -2.7931    3.2331   13.1222 C.3     1  UNL1        0.0000
      4 C          -1.6402    3.9184   11.3779 C.2     1  UNL1        0.0000
      5 C          -0.7662    4.1869   10.3821 C.2     1  UNL1        0.0000
      6 C           0.2330    3.2768    9.8085 C.ar    1  UNL1        0.0000
      7 C           0.9555    3.7065    8.6851 C.ar    1  UNL1        0.0000
      8 H           0.7453    4.6734    8.2501 H       1  UNL1        0.0000
      9 C           1.9273    2.9123    8.1128 C.ar    1  UNL1        0.0000
     10 H           2.4732    3.2634    7.2485 H       1  UNL1        0.0000
     11 C           2.1978    1.6652    8.6506 C.ar    1  UNL1        0.0000
     12 H           2.9654    1.0396    8.2147 H       1  UNL1        0.0000
     13 C           1.4656    1.2221    9.7435 C.ar    1  UNL1        0.0000
     14 H           1.6980    0.2235   10.1319 H       1  UNL1        0.0000
     15 C           0.4658    1.9929   10.3538 C.ar    1  UNL1        0.0000
     16 C          -4.5711    5.4195   11.5123 C.3     1  UNL1        0.0000
     17 H          -4.4658    6.3150   10.9088 H       1  UNL1        0.0000
     18 H          -5.3297    5.6149   12.2639 H       1  UNL1        0.0000
     19 H          -4.9363    4.6215   10.8743 H       1  UNL1        0.0000
     20 C          -2.2212    6.4718   13.2700 C.3     1  UNL1        0.0000
     21 H          -1.9435    7.2507   12.5664 H       1  UNL1        0.0000
     22 H          -1.3384    6.2133   13.8456 H       1  UNL1        0.0000
     23 H          -2.9569    6.8875   13.9511 H       1  UNL1        0.0000
     24 C          -3.4272    2.6031   14.2528 C.ar    1  UNL1        0.0000
     25 C          -3.2852    1.2374   14.5340 C.ar    1  UNL1        0.0000
     26 H          -2.6766    0.6244   13.8721 H       1  UNL1        0.0000
     27 C          -3.9117    0.6712   15.6267 C.ar    1  UNL1        0.0000
     28 H          -3.7930   -0.3845   15.8283 H       1  UNL1        0.0000
     29 C          -4.6943    1.4469   16.4685 C.ar    1  UNL1        0.0000
     30 H          -5.1815    1.0006   17.3225 H       1  UNL1        0.0000
     31 C          -4.8487    2.7988   16.2027 C.ar    1  UNL1        0.0000
     32 H          -5.4591    3.4081   16.8539 H       1  UNL1        0.0000
     33 C          -4.2272    3.3677   15.1100 C.ar    1  UNL1        0.0000
     34 H          -4.3457    4.4217   14.9022 H       1  UNL1        0.0000
     35 C          -0.8177    5.5745    9.8616 C.ar    1  UNL1        0.0000
     36 C          -1.9459    6.0388    9.1947 C.ar    1  UNL1        0.0000
     37 H          -2.7601    5.3557    9.0034 H       1  UNL1        0.0000
     38 C          -2.0198    7.3528    8.7680 C.ar    1  UNL1        0.0000
     39 H          -2.8990    7.7006    8.2446 H       1  UNL1        0.0000
     40 C          -0.9696    8.2221    9.0085 C.ar    1  UNL1        0.0000
     41 H          -1.0278    9.2490    8.6780 H       1  UNL1        0.0000
     42 C           0.1587    7.7686    9.6728 C.ar    1  UNL1        0.0000
     43 H           0.9802    8.4442    9.8637 H       1  UNL1        0.0000
     44 C           0.2360    6.4543   10.0939 C.ar    1  UNL1        0.0000
     45 H           1.1141    6.0994   10.6146 H       1  UNL1        0.0000
@<TRIPOS>BOND
     1    10     9    1
     2     9    11   ar
     3     9     7   ar
     4    12    11    1
     5    39    38    1
     6     8     7    1
     7    11    13   ar
     8    41    40    1
     9     7     6   ar
    10    38    40   ar
    11    38    36   ar
    12    37    36    1
    13    40    42   ar
    14    36    35   ar
    15    42    43    1
    16    42    44   ar
    17    13    14    1
    18    13    15   ar
    19     6    15   ar
    20     6     5    2
    21    35    44   ar
    22    35     5    1
    23    44    45    1
    24     5     4    1
    25    19    16    1
    26    17    16    1
    27     4     2    2
    28     4     1    1
    29    16    18    1
    30    16     1    1
    31     2     3    1
    32     1     3    1
    33     1    20    1
    34    21    20    1
    35     3    24    1
    36    20    22    1
    37    20    23    1
    38    26    25    1
    39    24    25   ar
    40    24    33   ar
    41    25    27   ar
    42    34    33    1
    43    33    31   ar
    44    27    28    1
    45    27    29   ar
    46    31    29   ar
    47    31    32    1
    48    29    30    1
