@<TRIPOS>MOLECULE
2,3
 15 14 0 0 0
SMALL
GASTEIGER

@<TRIPOS>ATOM
      1 SI          8.5995   11.6828    5.0150 Si      1  UNL1        0.0000
      2 C           9.6124   12.5882    6.3648 C.3     1  UNL1        0.0000
      3 C          10.0639   10.9772    4.0025 C.3     1  UNL1        0.0000
      4 C           7.5010   10.2891    5.7540 C.3     1  UNL1        0.0000
      5 C           7.4905   12.8750    3.9931 C.3     1  UNL1        0.0000
      6 H           9.4712   13.6767    6.3472 H       1  UNL1        0.0000
      7 H           9.3941   12.2305    7.3795 H       1  UNL1        0.0000
      8 H          10.1043   11.3826    2.9834 H       1  UNL1        0.0000
      9 H          10.0432    9.8821    3.9312 H       1  UNL1        0.0000
     10 H           6.7670   10.6834    6.4485 H       1  UNL1        0.0000
     11 H           8.1174    9.5739    6.2911 H       1  UNL1        0.0000
     12 H           6.9661    9.7497    4.9798 H       1  UNL1        0.0000
     13 H           6.7496   13.3650    4.6155 H       1  UNL1        0.0000
     14 H           6.9639   12.3520    3.2023 H       1  UNL1        0.0000
     15 H           8.0999   13.6465    3.5315 H       1  UNL1        0.0000
@<TRIPOS>BOND
     1     8     3    1
     2    14     5    1
     3    15     5    1
     4     9     3    1
     5     5    13    1
     6     5     1    1
     7     3     1    1
     8    12     4    1
     9     1     4    1
    10     1     2    1
    11     4    11    1
    12     4    10    1
    13     6     2    1
    14     2     7    1
