@<TRIPOS>MOLECULE
2,3
 15 14 0 0 0
SMALL
GASTEIGER

@<TRIPOS>ATOM
      1 SI         -0.1534    9.0260    2.5369 Si      1  UNL1        0.0000
      2 C          -1.3352    8.1903    3.7752 C.3     1  UNL1        0.0000
      3 C          -0.1274    7.5874    1.2892 C.3     1  UNL1        0.0000
      4 C          -0.8550   10.6501    1.7951 C.3     1  UNL1        0.0000
      5 C           1.5745    9.4087    3.2771 C.3     1  UNL1        0.0000
      6 H          -0.8875    8.0319    4.7586 H       1  UNL1        0.0000
      7 H          -2.2690    8.7383    3.9173 H       1  UNL1        0.0000
      8 H           0.8705    7.1675    1.1478 H       1  UNL1        0.0000
      9 H          -0.5077    7.8722    0.3063 H       1  UNL1        0.0000
     10 H          -1.0335   11.3916    2.5665 H       1  UNL1        0.0000
     11 H          -1.7948   10.4680    1.2834 H       1  UNL1        0.0000
     12 H          -0.1659   11.0814    1.0769 H       1  UNL1        0.0000
     13 H           1.5015   10.0904    4.1178 H       1  UNL1        0.0000
     14 H           2.2239    9.8657    2.5381 H       1  UNL1        0.0000
     15 H           2.0567    8.5005    3.6247 H       1  UNL1        0.0000
@<TRIPOS>BOND
     1     9     3    1
     2    12     4    1
     3     8     3    1
     4    11     4    1
     5     3     1    1
     6     4     1    1
     7     4    10    1
     8     1     5    1
     9     1     2    1
    10    14     5    1
    11     5    15    1
    12     5    13    1
    13     2     7    1
    14     2     6    1
