@<TRIPOS>MOLECULE
3,4
 28 27 0 0 0
SMALL
GASTEIGER

@<TRIPOS>ATOM
      1 SI          8.3238    1.7830    0.6782 Si      1  UNL1        0.0000
      2 SI          6.8066    1.7600    5.1776 Si      1  UNL1        0.0000
      3 C           7.1239    1.7361    2.1271 C.3     1  UNL1        0.0000
      4 C           6.7275    1.7283    3.2976 C.3     1  UNL1        0.0000
      5 C           8.1485    0.1658   -0.3129 C.3     1  UNL1        0.0000
      6 C           7.9519    3.3205   -0.3827 C.3     1  UNL1        0.0000
      7 C          10.0410    1.9094    1.4984 C.3     1  UNL1        0.0000
      8 C           8.6691    1.9095    5.5602 C.3     1  UNL1        0.0000
      9 C           5.8471    3.2780    5.8123 C.3     1  UNL1        0.0000
     10 C           6.0912    0.1274    5.8491 C.3     1  UNL1        0.0000
     11 H           8.3103   -0.7038    0.3180 H       1  UNL1        0.0000
     12 H           7.1572    0.0739   -0.7480 H       1  UNL1        0.0000
     13 H           8.8680    0.1209   -1.1255 H       1  UNL1        0.0000
     14 H           6.9660    3.2608   -0.8351 H       1  UNL1        0.0000
     15 H           7.9839    4.2288    0.2127 H       1  UNL1        0.0000
     16 H           8.6746    3.4287   -1.1866 H       1  UNL1        0.0000
     17 H          10.1257    2.8070    2.1027 H       1  UNL1        0.0000
     18 H          10.2344    1.0593    2.1449 H       1  UNL1        0.0000
     19 H          10.8269    1.9403    0.7500 H       1  UNL1        0.0000
     20 H           9.2244    1.0689    5.1564 H       1  UNL1        0.0000
     21 H           9.0890    2.8150    5.1337 H       1  UNL1        0.0000
     22 H           8.8446    1.9370    6.6312 H       1  UNL1        0.0000
     23 H           6.2234    4.1968    5.3710 H       1  UNL1        0.0000
     24 H           4.7903    3.2081    5.5702 H       1  UNL1        0.0000
     25 H           5.9299    3.3736    6.8913 H       1  UNL1        0.0000
     26 H           5.0385    0.0248    5.6009 H       1  UNL1        0.0000
     27 H           6.6102   -0.7321    5.4339 H       1  UNL1        0.0000
     28 H           6.1791    0.0737    6.9305 H       1  UNL1        0.0000
@<TRIPOS>BOND
     1    16     6    1
     2    13     5    1
     3    14     6    1
     4    12     5    1
     5     6    15    1
     6     6     1    1
     7     5    11    1
     8     5     1    1
     9     1     7    1
    10     1     3    1
    11    19     7    1
    12     7    17    1
    13     7    18    1
    14     3     4    1
    15     4     2    1
    16    21     8    1
    17    20     8    1
    18     2     8    1
    19     2     9    1
    20     2    10    1
    21    23     9    1
    22    27    10    1
    23     8    22    1
    24    24     9    1
    25    26    10    1
    26     9    25    1
    27    10    28    1
