@<TRIPOS>MOLECULE
1,6
 16 15 0 0 0
SMALL
GASTEIGER

@<TRIPOS>ATOM
      1 C           7.3316    7.6670    4.4333 C.3     1  UNL1       -0.0281
      2 H           6.3899    8.1393    4.7335 H       1  UNL1        0.0313
      3 H           7.0590    6.6675    4.0702 H       1  UNL1        0.0313
      4 C           8.1901    7.5083    5.6637 C.2     1  UNL1       -0.0733
      5 C           9.4587    7.9061    5.5867 C.2     1  UNL1       -0.0733
      6 C           9.9206    8.5209    4.2885 C.3     1  UNL1       -0.0281
      7 H          10.7139    7.8933    3.8609 H       1  UNL1        0.0313
      8 H          10.3963    9.4789    4.5234 H       1  UNL1        0.0313
      9 C           7.5026    6.8964    6.8508 C.3     1  UNL1       -0.0435
     10 H           8.1936    6.6565    7.6539 H       1  UNL1        0.0274
     11 H           6.9887    5.9824    6.5540 H       1  UNL1        0.0274
     12 H           6.7526    7.5865    7.2395 H       1  UNL1        0.0274
     13 C          10.5094    7.8042    6.6562 C.3     1  UNL1       -0.0435
     14 H          10.1404    7.3216    7.5567 H       1  UNL1        0.0274
     15 H          10.8700    8.7976    6.9225 H       1  UNL1        0.0274
     16 H          11.3614    7.2340    6.2844 H       1  UNL1        0.0274
@<TRIPOS>BOND
     1     7     6    1
     2     3     1    1
     3     6     8    1
     4     6     5    1
     5     1     2    1
     6     1     4    1
     7     5     4    2
     8     5    13    1
     9     4     9    1
    10    16    13    1
    11    11     9    1
    12    13    15    1
    13    13    14    1
    14     9    12    1
    15     9    10    1
