@<TRIPOS>MOLECULE
4,6
 22 22 0 0 0
SMALL
GASTEIGER

@<TRIPOS>ATOM
      1 SI          5.2061    0.5445    2.6031 Si      1  UNL1        0.0000
      2 C           7.1464    2.6778    1.9202 C.2     1  UNL1        0.0000
      3 H           7.9687    2.2518    2.4760 H       1  UNL1        0.0000
      4 C           5.0454    3.0798    1.1044 C.3     1  UNL1        0.0000
      5 H           4.0594    2.8253    0.7222 H       1  UNL1        0.0000
      6 C           5.7785    2.2838    2.0730 C.3     1  UNL1        0.0000
      7 C           7.2478    3.6433    0.9331 C.2     1  UNL1        0.0000
      8 H           8.1553    4.1255    0.6086 H       1  UNL1        0.0000
      9 C           5.9674    3.8988    0.4287 C.3     1  UNL1        0.0000
     10 H           5.7294    4.5814   -0.3721 H       1  UNL1        0.0000
     11 C           5.3920    0.3837    4.4993 C.3     1  UNL1        0.0000
     12 H           5.0460   -0.5813    4.8552 H       1  UNL1        0.0000
     13 H           4.7897    1.1570    4.9772 H       1  UNL1        0.0000
     14 H           6.4231    0.4990    4.8227 H       1  UNL1        0.0000
     15 C           6.3282   -0.7200    1.7127 C.3     1  UNL1        0.0000
     16 H           6.0075   -1.7319    1.9314 H       1  UNL1        0.0000
     17 H           7.3625   -0.6281    2.0257 H       1  UNL1        0.0000
     18 H           6.2986   -0.5885    0.6365 H       1  UNL1        0.0000
     19 C           3.3836    0.3357    2.0852 C.3     1  UNL1        0.0000
     20 H           2.9546   -0.5697    2.5019 H       1  UNL1        0.0000
     21 H           3.2638    0.2897    1.0067 H       1  UNL1        0.0000
     22 H           2.8102    1.1821    2.4615 H       1  UNL1        0.0000
@<TRIPOS>BOND
     1    10     9    1
     2     9     7    1
     3     9     4    1
     4     8     7    1
     5    18    15    1
     6     5     4    1
     7     7     2    2
     8    21    19    1
     9     4     6    1
    10    15    16    1
    11    15    17    1
    12    15     1    1
    13     2     6    1
    14     2     3    1
    15     6     1    1
    16    19    22    1
    17    19    20    1
    18    19     1    1
    19     1    11    1
    20    11    14    1
    21    11    12    1
    22    11    13    1
