@<TRIPOS>MOLECULE
3,4
 28 27 0 0 0
SMALL
GASTEIGER

@<TRIPOS>ATOM
      1 SI         14.6656   -2.2847    2.2813 Si      1  UNL1        0.0000
      2 SI         11.8817   -2.9596   -0.6770 Si      1  UNL1        0.0000
      3 C          13.5998   -1.3366    1.0605 C.2     1  UNL1        0.0000
      4 C          12.7366   -1.4778    0.0978 C.2     1  UNL1        0.0000
      5 C          15.7976   -1.0624    3.2288 C.3     1  UNL1        0.0000
      6 H          16.1993   -1.5195    4.1289 H       1  UNL1        0.0000
      7 H          15.2637   -0.1652    3.5274 H       1  UNL1        0.0000
      8 H          16.6410   -0.7557    2.6177 H       1  UNL1        0.0000
      9 C          15.8178   -3.5501    1.4212 C.3     1  UNL1        0.0000
     10 H          16.6408   -3.8288    2.0729 H       1  UNL1        0.0000
     11 H          16.2442   -3.1396    0.5113 H       1  UNL1        0.0000
     12 H          15.2886   -4.4572    1.1530 H       1  UNL1        0.0000
     13 C          13.5621   -3.1962    3.5539 C.3     1  UNL1        0.0000
     14 H          14.1619   -3.7841    4.2423 H       1  UNL1        0.0000
     15 H          12.8656   -3.8685    3.0639 H       1  UNL1        0.0000
     16 H          12.9755   -2.4974    4.1413 H       1  UNL1        0.0000
     17 C          11.9562   -2.8744   -2.5932 C.3     1  UNL1        0.0000
     18 H          11.8083   -3.8611   -3.0219 H       1  UNL1        0.0000
     19 H          12.9257   -2.5180   -2.9284 H       1  UNL1        0.0000
     20 H          11.1972   -2.2250   -3.0166 H       1  UNL1        0.0000
     21 C          12.6517   -4.6514   -0.2228 C.3     1  UNL1        0.0000
     22 H          12.0415   -5.4741   -0.5861 H       1  UNL1        0.0000
     23 H          12.7485   -4.7617    0.8517 H       1  UNL1        0.0000
     24 H          13.6408   -4.7586   -0.6556 H       1  UNL1        0.0000
     25 C          10.0599   -2.9908   -0.0755 C.3     1  UNL1        0.0000
     26 H           9.3864   -3.3678   -0.8397 H       1  UNL1        0.0000
     27 H           9.7173   -2.0032    0.2154 H       1  UNL1        0.0000
     28 H           9.9585   -3.6342    0.7927 H       1  UNL1        0.0000
@<TRIPOS>BOND
     1    18    17    1
     2    20    17    1
     3    19    17    1
     4    17     2    1
     5    26    25    1
     6     2    21    1
     7     2    25    1
     8     2     4    1
     9    24    21    1
    10    22    21    1
    11    21    23    1
    12    25    27    1
    13    25    28    1
    14     4     3    2
    15    11     9    1
    16     3     1    1
    17    12     9    1
    18     9    10    1
    19     9     1    1
    20     1     5    1
    21     1    13    1
    22     8     5    1
    23    15    13    1
    24     5     7    1
    25     5     6    1
    26    13    16    1
    27    13    14    1
