@<TRIPOS>MOLECULE
5,6
 48 47 0 0 0
SMALL
GASTEIGER

@<TRIPOS>ATOM
      1 SI         11.6109    5.0466   -1.3532 Si      1  UNL1        0.0000
      2 SI         11.8140    9.4709   -2.6060 Si      1  UNL1        0.0000
      3 O          12.0023    6.4664   -0.7078 O.2     1  UNL1        0.0000
      4 O          11.6241    9.6764   -0.9978 O.2     1  UNL1        0.0000
      5 C          11.7438    7.4801    0.1757 C.2     1  UNL1        0.0000
      6 C          11.6349    8.7690    0.0315 C.2     1  UNL1        0.0000
      7 C          12.6879    4.8868   -2.9187 C.3     1  UNL1        0.0000
      8 C          12.0456    3.5034   -0.2976 C.3     1  UNL1        0.0000
      9 C           9.7565    4.8993   -1.8110 C.3     1  UNL1        0.0000
     10 C          13.4948    8.6298   -3.0412 C.3     1  UNL1        0.0000
     11 C          14.0463    9.0248   -4.4100 C.3     1  UNL1        0.0000
     12 C          14.5581    8.8460   -1.9656 C.3     1  UNL1        0.0000
     13 C          11.6900   11.2810   -3.2471 C.3     1  UNL1        0.0000
     14 C          12.7913   12.1875   -2.7014 C.3     1  UNL1        0.0000
     15 C          10.3345   11.9183   -2.9473 C.3     1  UNL1        0.0000
     16 C          10.4411    8.3467   -3.3632 C.3     1  UNL1        0.0000
     17 C          10.1649    8.6309   -4.8380 C.3     1  UNL1        0.0000
     18 C           9.1413    8.4052   -2.5637 C.3     1  UNL1        0.0000
     19 H          12.6394    3.8706   -3.2969 H       1  UNL1        0.0000
     20 H          12.3592    5.5422   -3.7192 H       1  UNL1        0.0000
     21 H          13.7316    5.1100   -2.7181 H       1  UNL1        0.0000
     22 H          11.3529    3.3302    0.5210 H       1  UNL1        0.0000
     23 H          12.0170    2.6183   -0.9271 H       1  UNL1        0.0000
     24 H          13.0485    3.5598    0.1187 H       1  UNL1        0.0000
     25 H           9.1625    5.6884   -1.3600 H       1  UNL1        0.0000
     26 H           9.6131    4.9679   -2.8851 H       1  UNL1        0.0000
     27 H           9.3354    3.9495   -1.4945 H       1  UNL1        0.0000
     28 H          13.3045    7.5538   -3.0671 H       1  UNL1        0.0000
     29 H          14.9633    8.4765   -4.6248 H       1  UNL1        0.0000
     30 H          13.3287    8.8053   -5.1960 H       1  UNL1        0.0000
     31 H          14.2722   10.0878   -4.4475 H       1  UNL1        0.0000
     32 H          15.4375    8.2343   -2.1693 H       1  UNL1        0.0000
     33 H          14.8757    9.8863   -1.9327 H       1  UNL1        0.0000
     34 H          14.1638    8.5684   -0.9905 H       1  UNL1        0.0000
     35 H          11.8039   11.2414   -4.3340 H       1  UNL1        0.0000
     36 H          13.7770   11.7829   -2.9147 H       1  UNL1        0.0000
     37 H          12.7278   13.1793   -3.1498 H       1  UNL1        0.0000
     38 H          12.6892   12.2961   -1.6247 H       1  UNL1        0.0000
     39 H          10.1536   11.9368   -1.8747 H       1  UNL1        0.0000
     40 H          10.3034   12.9443   -3.3146 H       1  UNL1        0.0000
     41 H           9.5276   11.3663   -3.4209 H       1  UNL1        0.0000
     42 H          10.7980    7.3141   -3.2932 H       1  UNL1        0.0000
     43 H           9.7895    9.6419   -4.9757 H       1  UNL1        0.0000
     44 H          11.0700    8.5237   -5.4301 H       1  UNL1        0.0000
     45 H           9.4197    7.9379   -5.2282 H       1  UNL1        0.0000
     46 H           8.7070    9.4019   -2.5897 H       1  UNL1        0.0000
     47 H           8.4082    7.7078   -2.9691 H       1  UNL1        0.0000
     48 H           9.3346    8.1398   -1.5276 H       1  UNL1        0.0000
@<TRIPOS>BOND
     1    44    17    1
     2    45    17    1
     3    30    11    1
     4    43    17    1
     5    17    16    1
     6    29    11    1
     7    31    11    1
     8    11    10    1
     9    35    13    1
    10    20     7    1
    11    41    15    1
    12    16    42    1
    13    16     2    1
    14    16    18    1
    15    40    15    1
    16    19     7    1
    17    13    15    1
    18    13    14    1
    19    13     2    1
    20    37    14    1
    21    28    10    1
    22    10     2    1
    23    10    12    1
    24    47    18    1
    25    15    39    1
    26     7    21    1
    27     7     1    1
    28    36    14    1
    29    26     9    1
    30    14    38    1
    31     2     4    1
    32    46    18    1
    33    18    48    1
    34    32    12    1
    35    12    33    1
    36    12    34    1
    37     9    27    1
    38     9    25    1
    39     9     1    1
    40     1     3    1
    41     1     8    1
    42     4     6    1
    43    23     8    1
    44     3     5    1
    45     8    24    1
    46     8    22    1
    47     6     5    2
