@<TRIPOS>MOLECULE
4,9
 29 28 0 0 0
SMALL
GASTEIGER

@<TRIPOS>ATOM
      1 O           3.9477    2.0867   14.4064 O.3     1  UNL1        0.0000
      2 SI          4.3168    1.6683   12.8617 Si      1  UNL1        0.0000
      3 SI          2.6176    2.8922   14.9358 Si      1  UNL1        0.0000
      4 C           4.7954    3.9427   11.1739 C.3     1  UNL1        0.0000
      5 H           4.6649    4.2955   10.1615 H       1  UNL1        0.0000
      6 H           5.8361    3.7894   11.4198 H       1  UNL1        0.0000
      7 C           3.8383    3.0674   11.7239 C.3     1  UNL1        0.0000
      8 H           2.9576    2.8894   11.1120 H       1  UNL1        0.0000
      9 C           2.5103    5.5933   13.9661 C.3     1  UNL1        0.0000
     10 H           2.9838    5.8476   14.9012 H       1  UNL1        0.0000
     11 H           1.8205    6.3614   13.6390 H       1  UNL1        0.0000
     12 C           2.2137    4.2406   13.7124 C.3     1  UNL1        0.0000
     13 H           1.3455    4.0530   13.0865 H       1  UNL1        0.0000
     14 C           6.1777    1.2722   12.8845 C.3     1  UNL1        0.0000
     15 H           6.7854    2.1567   13.0382 H       1  UNL1        0.0000
     16 H           6.4721    0.8332   11.9375 H       1  UNL1        0.0000
     17 H           6.4195    0.5633   13.6696 H       1  UNL1        0.0000
     18 C           3.3463    0.0950   12.4051 C.3     1  UNL1        0.0000
     19 H           3.4632   -0.6696   13.1660 H       1  UNL1        0.0000
     20 H           3.6819   -0.3206   11.4610 H       1  UNL1        0.0000
     21 H           2.2863    0.3067   12.3150 H       1  UNL1        0.0000
     22 C           3.0612    3.5170   16.6745 C.3     1  UNL1        0.0000
     23 H           3.5201    2.7372   17.2728 H       1  UNL1        0.0000
     24 H           2.1662    3.8499   17.1879 H       1  UNL1        0.0000
     25 H           3.7469    4.3547   16.6339 H       1  UNL1        0.0000
     26 C           1.1671    1.6634   15.0492 C.3     1  UNL1        0.0000
     27 H           0.8457    1.3514   14.0613 H       1  UNL1        0.0000
     28 H           0.3117    2.1019   15.5520 H       1  UNL1        0.0000
     29 H           1.4535    0.7713   15.5964 H       1  UNL1        0.0000
@<TRIPOS>BOND
     1     5     4    1
     2     8     7    1
     3     4     6    1
     4     4     7    1
     5    20    18    1
     6     7     2    1
     7    16    14    1
     8    21    18    1
     9    18     2    1
    10    18    19    1
    11     2    14    1
    12     2     1    1
    13    14    15    1
    14    14    17    1
    15    13    12    1
    16    11     9    1
    17    12     9    1
    18    12     3    1
    19     9    10    1
    20    27    26    1
    21     1     3    1
    22     3    26    1
    23     3    22    1
    24    26    28    1
    25    26    29    1
    26    25    22    1
    27    22    24    1
    28    22    23    1
