@<TRIPOS>MOLECULE
1,2
 6 5 0 0 0
SMALL
GASTEIGER

@<TRIPOS>ATOM
      1 C          12.0670    6.3617    4.7828 C.3     1  UNL1       -0.0531
      2 C          10.9964    7.1898    5.1875 C.3     1  UNL1       -0.0531
      3 H          12.1850    5.3874    5.2461 H       1  UNL1        0.0265
      4 H          13.0027    6.8288    4.4883 H       1  UNL1        0.0265
      5 H          11.1368    8.2664    5.1801 H       1  UNL1        0.0265
      6 H          10.3095    6.8372    5.9496 H       1  UNL1        0.0265
@<TRIPOS>BOND
     1     4     1    1
     2     1     2    1
     3     1     3    1
     4     5     2    1
     5     2     6    1
