@<TRIPOS>MOLECULE
1,2
 26 27 0 0 0
SMALL
GASTEIGER

@<TRIPOS>ATOM
      1 C          10.0495   14.0643    8.0856 C.2     1  UNL1        0.0076
      2 C          11.3262   14.2403    7.7919 C.2     1  UNL1        0.0496
      3 C          12.4251   13.5971    7.2939 C.1     1  UNL1       -0.0592
      4 C          13.4589   13.1085    6.8719 C.1     1  UNL1       -0.0610
      5 C          14.6230   12.4876    6.3870 C.ar    1  UNL1        0.0253
      6 C          15.4093   11.7053    7.2385 C.ar    1  UNL1       -0.0463
      7 C          16.5524   11.0980    6.7592 C.ar    1  UNL1       -0.0606
      8 C          16.9275   11.2569    5.4340 C.ar    1  UNL1       -0.0617
      9 C          16.1519   12.0313    4.5853 C.ar    1  UNL1       -0.0606
     10 C          15.0072   12.6456    5.0523 C.ar    1  UNL1       -0.0463
     11 C           9.1604   12.9307    8.0025 C.ar    1  UNL1       -0.0161
     12 C           9.6657   11.6252    8.0130 C.ar    1  UNL1       -0.0540
     13 C           8.8101   10.5448    7.9339 C.ar    1  UNL1       -0.0612
     14 C           7.4413   10.7416    7.8327 C.ar    1  UNL1       -0.0617
     15 C           6.9298   12.0295    7.8080 C.ar    1  UNL1       -0.0612
     16 C           7.7784   13.1158    7.8966 C.ar    1  UNL1       -0.0540
     17 H          15.1126   11.5867    8.2704 H       1  UNL1        0.0630
     18 H          17.1567   10.4956    7.4222 H       1  UNL1        0.0618
     19 H          17.8225   10.7793    5.0638 H       1  UNL1        0.0618
     20 H          16.4439   12.1571    3.5526 H       1  UNL1        0.0618
     21 H          14.4000   13.2508    4.3949 H       1  UNL1        0.0630
     22 H          10.7342   11.4793    8.0839 H       1  UNL1        0.0624
     23 H           9.2103    9.5414    7.9464 H       1  UNL1        0.0618
     24 H           6.7754    9.8938    7.7688 H       1  UNL1        0.0618
     25 H           5.8640   12.1843    7.7209 H       1  UNL1        0.0618
     26 H           7.3824   14.1232    7.8697 H       1  UNL1        0.0624
@<TRIPOS>BOND
     1    20     9    1
     2    21    10    1
     3     9    10   ar
     4     9     8   ar
     5    10     5   ar
     6    19     8    1
     7     8     7   ar
     8     5     4    1
     9     5     6   ar
    10     7     6   ar
    11     7    18    1
    12     4     3    3
    13     6    17    1
    14     3     2    1
    15    25    15    1
    16    24    14    1
    17     2     1    2
    18    15    14   ar
    19    15    16   ar
    20    14    13   ar
    21    26    16    1
    22    16    11   ar
    23    13    23    1
    24    13    12   ar
    25    11    12   ar
    26    11     1    1
    27    12    22    1
