@<TRIPOS>MOLECULE
2,27
 52 53 0 0 0
SMALL
GASTEIGER

@<TRIPOS>ATOM
      1 SI          1.5979    1.2110    3.7759 Si      1  UNL1        0.0000
      2 C          -0.2563    1.1355    3.5002 C.2     1  UNL1        0.0000
      3 C          -0.9303   -0.0332    3.3872 C.2     1  UNL1        0.0000
      4 C          -0.2934   -1.3704    3.4897 C.ar    1  UNL1        0.0000
      5 C           0.4156   -1.9004    2.4185 C.ar    1  UNL1        0.0000
      6 C           1.0073   -3.1464    2.5160 C.ar    1  UNL1        0.0000
      7 C           0.8972   -3.8780    3.6862 C.ar    1  UNL1        0.0000
      8 C           0.1898   -3.3585    4.7574 C.ar    1  UNL1        0.0000
      9 C          -0.4048   -2.1146    4.6589 C.ar    1  UNL1        0.0000
     10 C           2.2918    0.1426    5.2087 C.3     1  UNL1        0.0000
     11 C           2.0001    3.0480    4.2134 C.3     1  UNL1        0.0000
     12 C           2.6297    0.7784    2.2124 C.3     1  UNL1        0.0000
     13 H           0.4936   -1.3288    1.5049 H       1  UNL1        0.0000
     14 H           1.5548   -3.5509    1.6764 H       1  UNL1        0.0000
     15 H           1.3596   -4.8514    3.7628 H       1  UNL1        0.0000
     16 H           0.1013   -3.9273    5.6720 H       1  UNL1        0.0000
     17 H          -0.9557   -1.7068    5.4943 H       1  UNL1        0.0000
     18 H           1.7119    0.2726    6.1175 H       1  UNL1        0.0000
     19 H           2.2620   -0.9113    4.9533 H       1  UNL1        0.0000
     20 H           3.3218    0.4018    5.4336 H       1  UNL1        0.0000
     21 H           1.2251    3.7314    3.8603 H       1  UNL1        0.0000
     22 H           2.1050    3.1873    5.2852 H       1  UNL1        0.0000
     23 H           2.9404    3.3557    3.7659 H       1  UNL1        0.0000
     24 H           2.7633   -0.2947    2.1288 H       1  UNL1        0.0000
     25 H           2.1475    1.1212    1.3016 H       1  UNL1        0.0000
     26 H           3.6166    1.2292    2.2528 H       1  UNL1        0.0000
     27 C          -3.0684    1.1356    3.0502 C.2     1  UNL1        0.0000
     28 C          -2.3945   -0.0332    3.1634 C.2     1  UNL1        0.0000
     29 SI         -4.9226    1.2111    2.7742 Si      1  UNL1        0.0000
     30 C          -3.0315   -1.3704    3.0612 C.ar    1  UNL1        0.0000
     31 C          -5.6159    0.1431    1.3408 C.3     1  UNL1        0.0000
     32 C          -5.3247    3.0483    2.3372 C.3     1  UNL1        0.0000
     33 C          -5.9550    0.7777    4.3372 C.3     1  UNL1        0.0000
     34 C          -3.7404   -1.9001    4.1326 C.ar    1  UNL1        0.0000
     35 C          -2.9201   -2.1148    1.8922 C.ar    1  UNL1        0.0000
     36 H          -5.0358    0.2736    0.4321 H       1  UNL1        0.0000
     37 H          -5.5858   -0.9109    1.5958 H       1  UNL1        0.0000
     38 H          -6.6459    0.4022    1.1157 H       1  UNL1        0.0000
     39 H          -4.5497    3.7315    2.6905 H       1  UNL1        0.0000
     40 H          -5.4296    3.1878    1.2655 H       1  UNL1        0.0000
     41 H          -6.2650    3.3557    2.7848 H       1  UNL1        0.0000
     42 H          -6.0891   -0.2956    4.4196 H       1  UNL1        0.0000
     43 H          -5.4727    1.1196    5.2485 H       1  UNL1        0.0000
     44 H          -6.9417    1.2292    4.2965 H       1  UNL1        0.0000
     45 C          -4.3321   -3.1461    4.0354 C.ar    1  UNL1        0.0000
     46 H          -3.8183   -1.3283    5.0461 H       1  UNL1        0.0000
     47 C          -3.5147   -3.3588    1.7940 C.ar    1  UNL1        0.0000
     48 H          -2.3692   -1.7072    1.0567 H       1  UNL1        0.0000
     49 C          -4.2221   -3.8780    2.8654 C.ar    1  UNL1        0.0000
     50 H          -4.8796   -3.5505    4.8751 H       1  UNL1        0.0000
     51 H          -3.4263   -3.9278    0.8795 H       1  UNL1        0.0000
     52 H          -4.6845   -4.8514    2.7891 H       1  UNL1        0.0000
@<TRIPOS>BOND
     1    36    31    1
     2    51    47    1
     3    48    35    1
     4    38    31    1
     5    40    32    1
     6    25    12    1
     7    31    37    1
     8    31    29    1
     9    13     5    1
    10    14     6    1
    11    47    35   ar
    12    47    49   ar
    13    35    30   ar
    14    24    12    1
    15    12    26    1
    16    12     1    1
    17    32    39    1
    18    32    29    1
    19    32    41    1
    20     5     6   ar
    21     5     4   ar
    22     6     7   ar
    23    29    27    1
    24    29    33    1
    25    52    49    1
    26    49    45   ar
    27    27    28    2
    28    30    28    1
    29    30    34   ar
    30    28     3    1
    31     3     4    1
    32     3     2    2
    33     4     9   ar
    34     2     1    1
    35     7    15    1
    36     7     8   ar
    37    23    11    1
    38     1    11    1
    39     1    10    1
    40    21    11    1
    41    45    34   ar
    42    45    50    1
    43    34    46    1
    44    11    22    1
    45    44    33    1
    46    33    42    1
    47    33    43    1
    48     9     8   ar
    49     9    17    1
    50     8    16    1
    51    19    10    1
    52    10    20    1
    53    10    18    1
