@<TRIPOS>MOLECULE
2,3
 27 27 0 0 0
SMALL
GASTEIGER

@<TRIPOS>ATOM
      1 SI          2.8211    1.7566    3.2197 Si      1  UNL1        0.0000
      2 C           1.2011    2.5855    2.6850 C.2     1  UNL1        0.0000
      3 C           0.8059    2.5202    1.4029 C.2     1  UNL1        0.0000
      4 C           3.6073    2.9475    4.5178 C.3     1  UNL1        0.0000
      5 C           2.5468    0.0327    4.0315 C.3     1  UNL1        0.0000
      6 C           4.2096    1.5727    1.9122 C.3     1  UNL1        0.0000
      7 C           1.3910    1.6881    0.3363 C.ar    1  UNL1        0.0000
      8 C           1.5307    0.3139    0.5022 C.ar    1  UNL1        0.0000
      9 C           2.0624   -0.4655   -0.5087 C.ar    1  UNL1        0.0000
     10 C           2.4704    0.1188   -1.6959 C.ar    1  UNL1        0.0000
     11 C           2.3244    1.4848   -1.8751 C.ar    1  UNL1        0.0000
     12 C           1.7748    2.2618   -0.8730 C.ar    1  UNL1        0.0000
     13 H          -0.0281    3.1246    1.0283 H       1  UNL1        0.0000
     14 H           4.0902    3.7875    4.0259 H       1  UNL1        0.0000
     15 H           2.8885    3.3450    5.2321 H       1  UNL1        0.0000
     16 H           4.3768    2.4302    5.0831 H       1  UNL1        0.0000
     17 H           1.4997   -0.1587    4.2506 H       1  UNL1        0.0000
     18 H           2.8884   -0.7550    3.3680 H       1  UNL1        0.0000
     19 H           3.1032   -0.0649    4.9585 H       1  UNL1        0.0000
     20 H           4.0621    0.7032    1.2821 H       1  UNL1        0.0000
     21 H           4.2504    2.4388    1.2586 H       1  UNL1        0.0000
     22 H           5.1793    1.4761    2.3915 H       1  UNL1        0.0000
     23 H           1.1991   -0.1392    1.4245 H       1  UNL1        0.0000
     24 H           2.1585   -1.5331   -0.3714 H       1  UNL1        0.0000
     25 H           2.8927   -0.4886   -2.4828 H       1  UNL1        0.0000
     26 H           2.6349    1.9431   -2.8030 H       1  UNL1        0.0000
     27 H           1.6548    3.3266   -1.0170 H       1  UNL1        0.0000
@<TRIPOS>BOND
     1    26    11    1
     2    25    10    1
     3    11    10   ar
     4    11    12   ar
     5    10     9   ar
     6    27    12    1
     7    12     7   ar
     8     9    24    1
     9     9     8   ar
    10     7     8   ar
    11     7     3    1
    12     8    23    1
    13    13     3    1
    14    21     6    1
    15    20     6    1
    16     3     2    2
    17     6    22    1
    18     6     1    1
    19     2     1    1
    20     1     5    1
    21     1     4    1
    22    18     5    1
    23    14     4    1
    24     5    17    1
    25     5    19    1
    26     4    16    1
    27     4    15    1
