@<TRIPOS>MOLECULE
2,5
 40 41 0 0 0
SMALL
GASTEIGER

@<TRIPOS>ATOM
      1 SI          1.1649   -2.3204    4.7788 Si      1  UNL1        0.0000
      2 C           0.2137   -1.0192    3.8221 C.2     1  UNL1        0.0000
      3 C          -0.7925   -1.3129    2.9592 C.2     1  UNL1        0.0000
      4 C          -1.4579   -0.2493    2.2059 C.2     1  UNL1        0.0000
      5 C          -1.0763    1.0414    2.3617 C.2     1  UNL1        0.0000
      6 C          -1.6151    2.1031    1.5157 C.ar    1  UNL1        0.0000
      7 C          -2.0345    1.8761    0.1976 C.ar    1  UNL1        0.0000
      8 C          -2.4849    2.9111   -0.5979 C.ar    1  UNL1        0.0000
      9 C          -2.5316    4.2057   -0.1064 C.ar    1  UNL1        0.0000
     10 C          -2.1088    4.4568    1.1899 C.ar    1  UNL1        0.0000
     11 C          -1.6474    3.4261    1.9852 C.ar    1  UNL1        0.0000
     12 C          -1.2553   -2.6940    2.6760 C.ar    1  UNL1        0.0000
     13 C          -1.9564   -3.4209    3.6312 C.ar    1  UNL1        0.0000
     14 C          -2.3595   -4.7178    3.3695 C.ar    1  UNL1        0.0000
     15 C          -2.0669   -5.3043    2.1494 C.ar    1  UNL1        0.0000
     16 C          -1.3810   -4.5824    1.1868 C.ar    1  UNL1        0.0000
     17 C          -0.9845   -3.2830    1.4453 C.ar    1  UNL1        0.0000
     18 C           2.7317   -1.4146    5.4458 C.3     1  UNL1        0.0000
     19 C           1.7813   -3.8338    3.7766 C.3     1  UNL1        0.0000
     20 C           0.2548   -3.0134    6.3254 C.3     1  UNL1        0.0000
     21 H          -2.2627   -0.5634    1.5351 H       1  UNL1        0.0000
     22 H          -1.9889    0.8747   -0.2056 H       1  UNL1        0.0000
     23 H          -2.8015    2.7095   -1.6115 H       1  UNL1        0.0000
     24 H          -2.8855    5.0134   -0.7297 H       1  UNL1        0.0000
     25 H          -2.1340    5.4662    1.5768 H       1  UNL1        0.0000
     26 H          -1.3075    3.6387    2.9966 H       1  UNL1        0.0000
     27 H          -2.1880   -2.9560    4.5781 H       1  UNL1        0.0000
     28 H          -2.9041   -5.2749    4.1187 H       1  UNL1        0.0000
     29 H          -2.3758   -6.3196    1.9477 H       1  UNL1        0.0000
     30 H          -1.1547   -5.0355    0.2321 H       1  UNL1        0.0000
     31 H          -0.4458   -2.7180    0.6973 H       1  UNL1        0.0000
     32 H           3.5556   -1.4675    4.7402 H       1  UNL1        0.0000
     33 H           2.5299   -0.3611    5.6521 H       1  UNL1        0.0000
     34 H           3.0795   -1.8704    6.3678 H       1  UNL1        0.0000
     35 H           0.9553   -4.4864    3.5145 H       1  UNL1        0.0000
     36 H           2.2575   -3.5255    2.8507 H       1  UNL1        0.0000
     37 H           2.5015   -4.4180    4.3411 H       1  UNL1        0.0000
     38 H          -0.3586   -2.2580    6.8079 H       1  UNL1        0.0000
     39 H          -0.3930   -3.8401    6.0544 H       1  UNL1        0.0000
     40 H           0.9621   -3.3817    7.0623 H       1  UNL1        0.0000
@<TRIPOS>BOND
     1    23     8    1
     2    24     9    1
     3     8     9   ar
     4     8     7   ar
     5    22     7    1
     6     9    10   ar
     7     7     6   ar
     8    30    16    1
     9    31    17    1
    10    16    17   ar
    11    16    15   ar
    12    10    25    1
    13    10    11   ar
    14    17    12   ar
    15     6    11   ar
    16     6     5    1
    17    21     4    1
    18    29    15    1
    19    11    26    1
    20    15    14   ar
    21     4     5    2
    22     4     3    1
    23    12     3    1
    24    12    13   ar
    25    36    19    1
    26     3     2    2
    27    14    13   ar
    28    14    28    1
    29    35    19    1
    30    13    27    1
    31    19    37    1
    32    19     1    1
    33     2     1    1
    34    32    18    1
    35     1    18    1
    36     1    20    1
    37    18    33    1
    38    18    34    1
    39    39    20    1
    40    20    38    1
    41    20    40    1
