@<TRIPOS>MOLECULE
5,6
 34 33 0 0 0
SMALL
GASTEIGER

@<TRIPOS>ATOM
      1 SI          2.1384   11.8963    6.5549 Si      1  UNL1        0.0000
      2 SI          1.6958   16.3922    5.8992 Si      1  UNL1        0.0000
      3 O           1.2455   14.8757    5.5854 O.2     1  UNL1        0.0000
      4 N           1.2003   11.7126    5.0942 N.pl3   1  UNL1        0.0000
      5 C           0.7809   12.7915    4.3538 C.2     1  UNL1        0.0000
      6 C           0.7576   14.1067    4.5537 C.2     1  UNL1        0.0000
      7 C           0.8113   10.4030    4.6057 C.3     1  UNL1        0.0000
      8 C           1.1390   12.7507    7.9405 C.3     1  UNL1        0.0000
      9 C           3.7625   12.8071    6.1381 C.3     1  UNL1        0.0000
     10 C           2.5898   10.1491    7.1758 C.3     1  UNL1        0.0000
     11 C           1.3243   17.6342    4.4848 C.3     1  UNL1        0.0000
     12 C           3.5746   16.4599    6.2487 C.3     1  UNL1        0.0000
     13 C           0.8096   16.9219    7.5065 C.3     1  UNL1        0.0000
     14 H           0.2005   10.5406    3.7103 H       1  UNL1        0.0000
     15 H           0.2287    9.8670    5.3581 H       1  UNL1        0.0000
     16 H           1.6842    9.7943    4.3610 H       1  UNL1        0.0000
     17 H           1.7650   12.9575    8.8032 H       1  UNL1        0.0000
     18 H           0.3105   12.1323    8.2771 H       1  UNL1        0.0000
     19 H           0.7336   13.6935    7.5923 H       1  UNL1        0.0000
     20 H           4.4329   12.1841    5.5512 H       1  UNL1        0.0000
     21 H           4.2938   13.1050    7.0363 H       1  UNL1        0.0000
     22 H           3.5507   13.7026    5.5662 H       1  UNL1        0.0000
     23 H           3.1595    9.5888    6.4426 H       1  UNL1        0.0000
     24 H           1.7108    9.5657    7.4273 H       1  UNL1        0.0000
     25 H           3.1969   10.2223    8.0713 H       1  UNL1        0.0000
     26 H           0.6823   18.4510    4.8032 H       1  UNL1        0.0000
     27 H           0.8252   17.1048    3.6722 H       1  UNL1        0.0000
     28 H           2.2275   18.0899    4.0875 H       1  UNL1        0.0000
     29 H           4.1813   16.1676    5.3964 H       1  UNL1        0.0000
     30 H           3.8371   15.8075    7.0751 H       1  UNL1        0.0000
     31 H           3.8673   17.4676    6.5269 H       1  UNL1        0.0000
     32 H           1.1295   17.9156    7.8031 H       1  UNL1        0.0000
     33 H           1.0595   16.2470    8.3194 H       1  UNL1        0.0000
     34 H          -0.2721   16.9372    7.4171 H       1  UNL1        0.0000
@<TRIPOS>BOND
     1    27    11    1
     2    14     7    1
     3    28    11    1
     4     5     6    2
     5     5     4    1
     6    16     7    1
     7    11    26    1
     8    11     2    1
     9     6     3    1
    10     7     4    1
    11     7    15    1
    12     4     1    1
    13    29    12    1
    14    20     9    1
    15    22     9    1
    16     3     2    1
    17     2    12    1
    18     2    13    1
    19     9     1    1
    20     9    21    1
    21    12    31    1
    22    12    30    1
    23    23    10    1
    24     1    10    1
    25     1     8    1
    26    10    24    1
    27    10    25    1
    28    34    13    1
    29    13    32    1
    30    13    33    1
    31    19     8    1
    32     8    18    1
    33     8    17    1
