@<TRIPOS>MOLECULE
1,2
 28 27 0 0 0
SMALL
GASTEIGER

@<TRIPOS>ATOM
      1 C           5.0769   17.2403    6.6561 C.2     1  UNL1        0.0000
      2 C           6.0660   18.0528    6.7776 C.2     1  UNL1        0.0000
      3 SI          3.4184   17.1042    5.7780 Si      1  UNL1        0.0000
      4 SI          6.6645   19.7394    6.1871 Si      1  UNL1        0.0000
      5 C           2.5535   15.4459    6.2018 C.3     1  UNL1        0.0000
      6 C           2.2620   18.5139    6.3549 C.3     1  UNL1        0.0000
      7 C           3.7229   17.2106    3.8939 C.3     1  UNL1        0.0000
      8 C           5.1680   20.8277    5.6871 C.3     1  UNL1        0.0000
      9 C           7.5728   20.5938    7.6326 C.3     1  UNL1        0.0000
     10 C           7.7943   19.5509    4.6527 C.3     1  UNL1        0.0000
     11 H           2.8727   14.6384    5.5497 H       1  UNL1        0.0000
     12 H           2.7591   15.1428    7.2248 H       1  UNL1        0.0000
     13 H           1.4757   15.5317    6.0978 H       1  UNL1        0.0000
     14 H           1.2538   18.3635    5.9797 H       1  UNL1        0.0000
     15 H           2.2070   18.5651    7.4379 H       1  UNL1        0.0000
     16 H           2.6046   19.4784    5.9989 H       1  UNL1        0.0000
     17 H           4.3502   16.3960    3.5448 H       1  UNL1        0.0000
     18 H           2.7879   17.1660    3.3441 H       1  UNL1        0.0000
     19 H           4.2198   18.1388    3.6320 H       1  UNL1        0.0000
     20 H           4.6263   20.4030    4.8488 H       1  UNL1        0.0000
     21 H           4.4703   20.9452    6.5097 H       1  UNL1        0.0000
     22 H           5.4994   21.8198    5.3956 H       1  UNL1        0.0000
     23 H           6.8762   20.8888    8.4127 H       1  UNL1        0.0000
     24 H           8.3030   19.9262    8.0809 H       1  UNL1        0.0000
     25 H           8.0943   21.4881    7.3047 H       1  UNL1        0.0000
     26 H           7.4494   18.7547    3.9992 H       1  UNL1        0.0000
     27 H           7.8114   20.4679    4.0713 H       1  UNL1        0.0000
     28 H           8.8164   19.3260    4.9388 H       1  UNL1        0.0000
@<TRIPOS>BOND
     1    18     7    1
     2    17     7    1
     3    19     7    1
     4     7     3    1
     5    26    10    1
     6    27    10    1
     7    10    28    1
     8    10     4    1
     9    20     8    1
    10    22     8    1
    11    11     5    1
    12     8     4    1
    13     8    21    1
    14     3     5    1
    15     3     6    1
    16     3     1    1
    17    14     6    1
    18    16     6    1
    19    13     5    1
    20     4     2    1
    21     4     9    1
    22     5    12    1
    23     6    15    1
    24     1     2    2
    25    25     9    1
    26     9    24    1
    27     9    23    1
