@<TRIPOS>MOLECULE
4,5
 21 20 0 0 0
SMALL
GASTEIGER

@<TRIPOS>ATOM
      1 SI          2.5532    0.2223    6.5213 Si      1  UNL1        0.0000
      2 O           3.0636    1.3669    5.4361 O.3     1  UNL1        0.0000
      3 O           0.6814    0.6993    2.8882 O.3     1  UNL1        0.0000
      4 C           2.6398    1.5764    4.1775 C.3     1  UNL1        0.0000
      5 C           1.8273    1.2502    3.2378 C.3     1  UNL1        0.0000
      6 C           0.9962    0.7615    7.4676 C.3     1  UNL1        0.0000
      7 C           2.3655   -1.4677    5.6727 C.3     1  UNL1        0.0000
      8 C           4.0431    0.2247    7.7204 C.3     1  UNL1        0.0000
      9 B          -0.4353    0.8375    3.8573 B       1  UNL1        0.0000
     10 F          -1.5860    1.0560    3.1226 F       1  UNL1        0.0000
     11 F          -0.5733   -0.2712    4.6546 F       1  UNL1        0.0000
     12 F          -0.1978    1.9671    4.6533 F       1  UNL1        0.0000
     13 H           1.1321    1.7071    7.9877 H       1  UNL1        0.0000
     14 H           0.1599    0.8760    6.7870 H       1  UNL1        0.0000
     15 H           0.7161    0.0171    8.2061 H       1  UNL1        0.0000
     16 H           2.3104   -2.2809    6.3892 H       1  UNL1        0.0000
     17 H           1.4490   -1.4810    5.0917 H       1  UNL1        0.0000
     18 H           3.1896   -1.6742    4.9925 H       1  UNL1        0.0000
     19 H           3.8087   -0.3880    8.5832 H       1  UNL1        0.0000
     20 H           4.9448   -0.1804    7.2720 H       1  UNL1        0.0000
     21 H           4.2769    1.2201    8.0858 H       1  UNL1        0.0000
@<TRIPOS>BOND
     1     3     5    1
     2     3     9    1
     3    10     9    1
     4     5     4    1
     5     9    12    1
     6     9    11    1
     7     4     2    1
     8    18     7    1
     9    17     7    1
    10     2     1    1
    11     7    16    1
    12     7     1    1
    13     1     6    1
    14     1     8    1
    15    14     6    1
    16    20     8    1
    17     6    13    1
    18     6    15    1
    19     8    21    1
    20     8    19    1
