@<TRIPOS>MOLECULE
5,8
 60 59 0 0 0
SMALL
GASTEIGER

@<TRIPOS>ATOM
      1 SI          5.2544    0.8094   -2.5316 Si      1  UNL1        0.0000
      2 SI          6.2700   -4.0226   -2.8350 Si      1  UNL1        0.0000
      3 C           1.2088    0.5686    3.2538 C.1     1  UNL1        0.0000
      4 C           1.8907    0.2039    2.3158 C.1     1  UNL1        0.0000
      5 C           2.7010   -0.0015    1.2035 C.2     1  UNL1        0.0000
      6 C           3.2214   -1.1215    0.6484 C.2     1  UNL1        0.0000
      7 C           4.0586   -0.8711   -0.5549 C.2     1  UNL1        0.0000
      8 C           4.2102    0.4043   -1.0275 C.2     1  UNL1        0.0000
      9 C           4.7204   -1.9265   -1.2296 C.1     1  UNL1        0.0000
     10 C           5.3560   -2.7261   -1.8857 C.1     1  UNL1        0.0000
     11 C           5.0444   -4.8667   -4.0290 C.3     1  UNL1        0.0000
     12 H           4.2195   -5.3199   -3.4874 H       1  UNL1        0.0000
     13 H           5.5262   -5.6486   -4.6092 H       1  UNL1        0.0000
     14 H           4.6217   -4.1512   -4.7281 H       1  UNL1        0.0000
     15 C           7.6841   -3.2011   -3.8162 C.3     1  UNL1        0.0000
     16 H           8.4254   -2.7685   -3.1510 H       1  UNL1        0.0000
     17 H           7.3111   -2.4035   -4.4515 H       1  UNL1        0.0000
     18 H           8.1943   -3.9188   -4.4526 H       1  UNL1        0.0000
     19 C           6.9747   -5.2972   -1.6025 C.3     1  UNL1        0.0000
     20 H           7.6616   -4.8282   -0.9041 H       1  UNL1        0.0000
     21 H           7.5147   -6.0899   -2.1127 H       1  UNL1        0.0000
     22 H           6.1828   -5.7595   -1.0209 H       1  UNL1        0.0000
     23 C           4.9757    2.6927   -2.8521 C.3     1  UNL1        0.0000
     24 H           5.8703    3.1532   -3.2599 H       1  UNL1        0.0000
     25 H           4.7143    3.2291   -1.9359 H       1  UNL1        0.0000
     26 H           4.1812    2.8552   -3.5749 H       1  UNL1        0.0000
     27 C           7.1299    0.5427   -2.2256 C.3     1  UNL1        0.0000
     28 H           7.7254    0.8931   -3.0626 H       1  UNL1        0.0000
     29 H           7.3373   -0.5126   -2.0875 H       1  UNL1        0.0000
     30 H           7.4689    1.0633   -1.3346 H       1  UNL1        0.0000
     31 C           4.7896   -0.0725   -4.1694 C.3     1  UNL1        0.0000
     32 H           5.3784    0.3030   -5.0006 H       1  UNL1        0.0000
     33 H           3.7419    0.0732   -4.4149 H       1  UNL1        0.0000
     34 H           4.9614   -1.1397   -4.0894 H       1  UNL1        0.0000
     35 C           0.4022    1.0057    4.3859 C.3     1  UNL1        0.0000
     36 C           0.6317    2.5076    4.6124 C.3     1  UNL1        0.0000
     37 H           0.3538    3.0743    3.7247 H       1  UNL1        0.0000
     38 H           1.6805    2.7011    4.8304 H       1  UNL1        0.0000
     39 H           0.0325    2.8599    5.4500 H       1  UNL1        0.0000
     40 C          -1.0782    0.7429    4.0781 C.3     1  UNL1        0.0000
     41 H          -1.3922    1.2956    3.1946 H       1  UNL1        0.0000
     42 H          -1.6972    1.0521    4.9181 H       1  UNL1        0.0000
     43 H          -1.2441   -0.3165    3.8945 H       1  UNL1        0.0000
     44 C           0.8184    0.2209    5.6374 C.3     1  UNL1        0.0000
     45 H           1.8701    0.3898    5.8604 H       1  UNL1        0.0000
     46 H           0.6684   -0.8454    5.4821 H       1  UNL1        0.0000
     47 H           0.2264    0.5358    6.4946 H       1  UNL1        0.0000
     48 C           3.0166   -2.5536    1.1453 C.3     1  UNL1        0.0000
     49 C           2.3635   -3.3906    0.0358 C.3     1  UNL1        0.0000
     50 H           2.1953   -4.4069    0.3876 H       1  UNL1        0.0000
     51 H           2.9903   -3.4326   -0.8494 H       1  UNL1        0.0000
     52 H           1.4025   -2.9582   -0.2382 H       1  UNL1        0.0000
     53 C           2.1006   -2.6105    2.3712 C.3     1  UNL1        0.0000
     54 H           1.9729   -3.6469    2.6797 H       1  UNL1        0.0000
     55 H           1.1206   -2.1975    2.1456 H       1  UNL1        0.0000
     56 H           2.5274   -2.0564    3.2031 H       1  UNL1        0.0000
     57 C           4.3715   -3.1544    1.5473 C.3     1  UNL1        0.0000
     58 H           4.2309   -4.1633    1.9308 H       1  UNL1        0.0000
     59 H           4.8277   -2.5494    2.3293 H       1  UNL1        0.0000
     60 H           5.0504   -3.1994    0.7017 H       1  UNL1        0.0000
@<TRIPOS>BOND
     1    32    31    1
     2    14    11    1
     3    13    11    1
     4    18    15    1
     5    17    15    1
     6    33    31    1
     7    31    34    1
     8    31     1    1
     9    11    12    1
    10    11     2    1
    11    15    16    1
    12    15     2    1
    13    26    23    1
    14    24    23    1
    15    28    27    1
    16    23     1    1
    17    23    25    1
    18     2    10    1
    19     2    19    1
    20     1    27    1
    21     1     8    1
    22    27    29    1
    23    27    30    1
    24    21    19    1
    25    10     9    3
    26    19    22    1
    27    19    20    1
    28     9     7    1
    29     8     7    2
    30    51    49    1
    31     7     6    1
    32    52    49    1
    33    49    50    1
    34    49    48    1
    35     6    48    1
    36     6     5    2
    37    60    57    1
    38    48    57    1
    39    48    53    1
    40     5     4    1
    41    57    58    1
    42    57    59    1
    43    55    53    1
    44     4     3    3
    45    53    54    1
    46    53    56    1
    47    41    40    1
    48     3    35    1
    49    37    36    1
    50    43    40    1
    51    40    35    1
    52    40    42    1
    53    35    36    1
    54    35    44    1
    55    36    38    1
    56    36    39    1
    57    46    44    1
    58    44    45    1
    59    44    47    1
