@<TRIPOS>MOLECULE
3,6
 50 52 0 0 0
SMALL
GASTEIGER

@<TRIPOS>ATOM
      1 S          -2.4003    1.9582   -0.9308 S.3     1  UNL1       -0.1286
      2 S          11.9598    5.8452   11.7747 S.3     1  UNL1       -0.1286
      3 C           3.6269    2.4615    5.0992 C.2     1  UNL1        0.0444
      4 C           4.1207    1.4836    5.9134 C.2     1  UNL1       -0.0264
      5 C           5.2045    1.8636    6.7685 C.2     1  UNL1       -0.0264
      6 C           5.6171    3.1675    6.6644 C.2     1  UNL1        0.0444
      7 C           2.5968    2.2526    4.1977 C.1     1  UNL1       -0.0595
      8 C           1.7052    2.1066    3.3827 C.1     1  UNL1       -0.0610
      9 C           0.7172    2.0269    2.3901 C.ar    1  UNL1        0.0253
     10 C          -0.1993    0.9746    2.3403 C.ar    1  UNL1       -0.0453
     11 H          -0.1567    0.1955    3.0884 H       1  UNL1        0.0630
     12 C          -1.1593    0.9198    1.3492 C.ar    1  UNL1       -0.0472
     13 H          -1.8547    0.0950    1.3403 H       1  UNL1        0.0629
     14 C          -1.2189    1.9176    0.3857 C.ar    1  UNL1        0.0077
     15 C          -0.3070    2.9729    0.4260 C.ar    1  UNL1       -0.0472
     16 H          -0.3662    3.7437   -0.3284 H       1  UNL1        0.0629
     17 C           0.6487    3.0290    1.4121 C.ar    1  UNL1       -0.0453
     18 H           1.3560    3.8439    1.4544 H       1  UNL1        0.0630
     19 C          -3.3582    0.4314   -0.7136 C.3     1  UNL1       -0.0135
     20 H          -4.0744    0.4173   -1.5294 H       1  UNL1        0.0344
     21 H          -3.8835    0.4519    0.2371 H       1  UNL1        0.0344
     22 H          -2.7023   -0.4318   -0.7838 H       1  UNL1        0.0344
     23 C           3.5918    0.0733    5.8872 C.3     1  UNL1       -0.0262
     24 H           4.0095   -0.4448    5.0151 H       1  UNL1        0.0314
     25 H           2.5063    0.0900    5.7531 H       1  UNL1        0.0314
     26 C           3.9720   -0.6943    7.1489 C.3     1  UNL1       -0.0487
     27 H           3.6948   -1.7455    7.0396 H       1  UNL1        0.0268
     28 H           3.4275   -0.2913    8.0070 H       1  UNL1        0.0268
     29 C           5.4706   -0.5601    7.3945 C.3     1  UNL1       -0.0487
     30 H           5.7851   -1.2186    8.2079 H       1  UNL1        0.0268
     31 H           6.0106   -0.8611    6.4928 H       1  UNL1        0.0268
     32 C           5.8102    0.8858    7.7424 C.3     1  UNL1       -0.0262
     33 H           5.4297    1.1108    8.7467 H       1  UNL1        0.0314
     34 H           6.8945    1.0272    7.7780 H       1  UNL1        0.0314
     35 C           6.6540    3.6165    7.4717 C.1     1  UNL1       -0.0595
     36 C           7.5610    4.0263    8.1752 C.1     1  UNL1       -0.0610
     37 C           8.6003    4.4446    9.0224 C.ar    1  UNL1        0.0253
     38 C           9.1571    3.5460    9.9396 C.ar    1  UNL1       -0.0453
     39 H           8.7787    2.5343    9.9805 H       1  UNL1        0.0630
     40 C          10.1744    3.9301   10.7881 C.ar    1  UNL1       -0.0472
     41 H          10.5778    3.2081   11.4809 H       1  UNL1        0.0629
     42 C          10.6624    5.2294   10.7410 C.ar    1  UNL1        0.0077
     43 C          10.1194    6.1346    9.8306 C.ar    1  UNL1       -0.0472
     44 H          10.5078    7.1421    9.8017 H       1  UNL1        0.0629
     45 C           9.1057    5.7516    8.9839 C.ar    1  UNL1       -0.0453
     46 H           8.6944    6.4644    8.2840 H       1  UNL1        0.0630
     47 C          12.3714    4.4428   12.8507 C.3     1  UNL1       -0.0135
     48 H          13.1511    4.8034   13.5147 H       1  UNL1        0.0344
     49 H          12.7475    3.6144   12.2570 H       1  UNL1        0.0344
     50 H          11.4999    4.1506   13.4296 H       1  UNL1        0.0344
@<TRIPOS>BOND
     1    20    19    1
     2     1    19    1
     3     1    14    1
     4    22    19    1
     5    19    21    1
     6    16    15    1
     7    14    15   ar
     8    14    12   ar
     9    15    17   ar
    10    13    12    1
    11    12    10   ar
    12    17    18    1
    13    17     9   ar
    14    10     9   ar
    15    10    11    1
    16     9     8    1
    17     8     7    3
    18     7     3    1
    19    24    23    1
    20     3     4    2
    21    25    23    1
    22    23     4    1
    23    23    26    1
    24     4     5    1
    25    31    29    1
    26     6     5    2
    27     6    35    1
    28     5    32    1
    29    27    26    1
    30    26    29    1
    31    26    28    1
    32    29    32    1
    33    29    30    1
    34    35    36    3
    35    32    34    1
    36    32    33    1
    37    36    37    1
    38    46    45    1
    39    45    37   ar
    40    45    43   ar
    41    37    38   ar
    42    44    43    1
    43    43    42   ar
    44    38    39    1
    45    38    40   ar
    46    42    40   ar
    47    42     2    1
    48    40    41    1
    49     2    47    1
    50    49    47    1
    51    47    50    1
    52    47    48    1
