@<TRIPOS>MOLECULE
1,4
 42 44 0 0 0
SMALL
GASTEIGER

@<TRIPOS>ATOM
      1 C           3.9884    8.5557   11.8947 C.2     1  UNL1        0.0444
      2 C           4.4946    7.3423   11.5254 C.2     1  UNL1       -0.0264
      3 C           5.4532    7.3564   10.4625 C.2     1  UNL1       -0.0264
      4 C           5.7461    8.5907    9.9424 C.2     1  UNL1        0.0444
      5 C           3.0590    8.6914   12.9138 C.1     1  UNL1       -0.0595
      6 C           2.2433    8.8102   13.8078 C.1     1  UNL1       -0.0610
      7 C           1.3096    9.0342   14.8329 C.ar    1  UNL1        0.0253
      8 C           0.7514    7.9763   15.5565 C.ar    1  UNL1       -0.0463
      9 H           1.0425    6.9616   15.3232 H       1  UNL1        0.0630
     10 C          -0.1625    8.2313   16.5594 C.ar    1  UNL1       -0.0606
     11 H          -0.5915    7.4099   17.1165 H       1  UNL1        0.0618
     12 C          -0.5327    9.5342   16.8557 C.ar    1  UNL1       -0.0617
     13 H          -1.2487    9.7272   17.6415 H       1  UNL1        0.0618
     14 C           0.0177   10.5883   16.1412 C.ar    1  UNL1       -0.0606
     15 H          -0.2714   11.6040   16.3716 H       1  UNL1        0.0618
     16 C           0.9320   10.3467   15.1371 C.ar    1  UNL1       -0.0463
     17 H           1.3700   11.1553   14.5707 H       1  UNL1        0.0630
     18 C           4.0982    6.0631   12.2152 C.3     1  UNL1       -0.0262
     19 H           3.0301    6.0878   12.4503 H       1  UNL1        0.0314
     20 H           4.6305    5.9993   13.1723 H       1  UNL1        0.0314
     21 C           4.4394    4.8372   11.3746 C.3     1  UNL1       -0.0487
     22 H           3.7856    4.7932   10.4995 H       1  UNL1        0.0268
     23 H           4.2751    3.9304   11.9615 H       1  UNL1        0.0268
     24 C           5.8907    4.9201   10.9156 C.3     1  UNL1       -0.0487
     25 H           6.5349    5.0724   11.7857 H       1  UNL1        0.0268
     26 H           6.1934    3.9866   10.4349 H       1  UNL1        0.0268
     27 C           6.0578    6.0794    9.9385 C.3     1  UNL1       -0.0262
     28 H           7.1160    6.2402    9.7120 H       1  UNL1        0.0314
     29 H           5.5678    5.8226    8.9910 H       1  UNL1        0.0314
     30 C           6.6550    8.6781    8.8946 C.1     1  UNL1       -0.0595
     31 C           7.4489    8.7546    7.9736 C.1     1  UNL1       -0.0610
     32 C           8.3654    8.7835    6.9071 C.ar    1  UNL1        0.0253
     33 C           8.8862    7.5820    6.4100 C.ar    1  UNL1       -0.0463
     34 H           8.5726    6.6495    6.8582 H       1  UNL1        0.0630
     35 C           9.7840    7.5893    5.3633 C.ar    1  UNL1       -0.0606
     36 H          10.1786    6.6555    4.9878 H       1  UNL1        0.0618
     37 C          10.1826    8.7878    4.7904 C.ar    1  UNL1       -0.0617
     38 H          10.8860    8.7902    3.9707 H       1  UNL1        0.0618
     39 C           9.6740    9.9827    5.2747 C.ar    1  UNL1       -0.0606
     40 H           9.9829   10.9188    4.8302 H       1  UNL1        0.0618
     41 C           8.7746    9.9870    6.3216 C.ar    1  UNL1       -0.0463
     42 H           8.3821   10.9227    6.6939 H       1  UNL1        0.0630
@<TRIPOS>BOND
     1    38    37    1
     2    37    39   ar
     3    37    35   ar
     4    40    39    1
     5    36    35    1
     6    39    41   ar
     7    35    33   ar
     8    41    42    1
     9    41    32   ar
    10    33    34    1
    11    33    32   ar
    12    32    31    1
    13    31    30    3
    14    30     4    1
    15    29    27    1
    16    28    27    1
    17    27     3    1
    18    27    24    1
    19     4     3    2
    20    26    24    1
    21     3     2    1
    22    22    21    1
    23    24    21    1
    24    24    25    1
    25    21    23    1
    26    21    18    1
    27     2     1    2
    28     2    18    1
    29     1     5    1
    30    18    19    1
    31    18    20    1
    32     5     6    3
    33     6     7    1
    34    17    16    1
    35     7    16   ar
    36     7     8   ar
    37    16    14   ar
    38     9     8    1
    39     8    10   ar
    40    14    15    1
    41    14    12   ar
    42    10    12   ar
    43    10    11    1
    44    12    13    1
