@<TRIPOS>MOLECULE
5,6
 50 50 0 0 0
SMALL
GASTEIGER

@<TRIPOS>ATOM
      1 S           8.2147    1.4136    6.7367 S.O2    1  UNL1        0.0000
      2 SI          9.4859    2.5672    2.6942 Si      1  UNL1        0.0000
      3 O           9.0219    0.2487    7.0196 O.2     1  UNL1        0.0000
      4 O           7.0053    1.5934    7.4965 O.2     1  UNL1        0.0000
      5 C           7.8638    1.4312    5.0138 C.2     1  UNL1        0.0000
      6 C           8.2497    1.7706    3.8609 C.2     1  UNL1        0.0000
      7 C           9.2231    2.8804    6.9443 C.ar    1  UNL1        0.0000
      8 C           8.6556    4.1085    6.6646 C.ar    1  UNL1        0.0000
      9 H           7.6181    4.1508    6.3719 H       1  UNL1        0.0000
     10 C           9.4251    5.2512    6.7778 C.ar    1  UNL1        0.0000
     11 H           8.9940    6.2166    6.5568 H       1  UNL1        0.0000
     12 C          10.7586    5.1706    7.1732 C.ar    1  UNL1        0.0000
     13 C          11.3017    3.9247    7.4665 C.ar    1  UNL1        0.0000
     14 H          12.3316    3.8536    7.7848 H       1  UNL1        0.0000
     15 C          10.5367    2.7763    7.3512 C.ar    1  UNL1        0.0000
     16 H          10.9371    1.7995    7.5719 H       1  UNL1        0.0000
     17 C          11.5928    6.4114    7.2593 C.3     1  UNL1        0.0000
     18 H          11.9033    6.7185    6.2601 H       1  UNL1        0.0000
     19 H          12.4855    6.2417    7.8559 H       1  UNL1        0.0000
     20 H          11.0243    7.2290    7.6972 H       1  UNL1        0.0000
     21 C           9.8510    1.1896    1.3992 C.3     1  UNL1        0.0000
     22 H          10.1165    0.2968    1.9741 H       1  UNL1        0.0000
     23 C           8.5827    4.1157    1.9787 C.3     1  UNL1        0.0000
     24 H           7.5751    3.7885    1.7055 H       1  UNL1        0.0000
     25 C          11.0036    3.0335    3.7823 C.3     1  UNL1        0.0000
     26 H          10.6184    3.6000    4.6351 H       1  UNL1        0.0000
     27 C           8.5839    0.8525    0.6168 C.3     1  UNL1        0.0000
     28 H           8.2876    1.6821   -0.0207 H       1  UNL1        0.0000
     29 H           7.7691    0.6420    1.3104 H       1  UNL1        0.0000
     30 H           8.7436   -0.0227   -0.0118 H       1  UNL1        0.0000
     31 C          11.0086    1.4685    0.4433 C.3     1  UNL1        0.0000
     32 H          11.1342    0.6333   -0.2454 H       1  UNL1        0.0000
     33 H          11.9403    1.5927    0.9888 H       1  UNL1        0.0000
     34 H          10.8327    2.3659   -0.1437 H       1  UNL1        0.0000
     35 C           9.2191    4.7100    0.7239 C.3     1  UNL1        0.0000
     36 H           8.6570    5.5832    0.3932 H       1  UNL1        0.0000
     37 H           9.2229    3.9878   -0.0879 H       1  UNL1        0.0000
     38 H          10.2438    5.0209    0.9102 H       1  UNL1        0.0000
     39 C           8.4275    5.1943    3.0503 C.3     1  UNL1        0.0000
     40 H           9.3948    5.5980    3.3400 H       1  UNL1        0.0000
     41 H           7.9571    4.7818    3.9387 H       1  UNL1        0.0000
     42 H           7.8144    6.0158    2.6808 H       1  UNL1        0.0000
     43 C          11.6710    1.7778    4.3357 C.3     1  UNL1        0.0000
     44 H          12.0782    1.1710    3.5303 H       1  UNL1        0.0000
     45 H          10.9525    1.1766    4.8857 H       1  UNL1        0.0000
     46 H          12.4858    2.0441    5.0081 H       1  UNL1        0.0000
     47 C          12.0382    3.9148    3.0863 C.3     1  UNL1        0.0000
     48 H          12.8615    4.1345    3.7663 H       1  UNL1        0.0000
     49 H          11.6007    4.8597    2.7750 H       1  UNL1        0.0000
     50 H          12.4491    3.4229    2.2088 H       1  UNL1        0.0000
@<TRIPOS>BOND
     1    32    31    1
     2    34    31    1
     3    37    35    1
     4    28    27    1
     5    30    27    1
     6    36    35    1
     7    31    33    1
     8    31    21    1
     9    27    29    1
    10    27    21    1
    11    35    38    1
    12    35    23    1
    13    21    22    1
    14    21     2    1
    15    24    23    1
    16    23     2    1
    17    23    39    1
    18    50    47    1
    19    42    39    1
    20     2    25    1
    21     2     6    1
    22    49    47    1
    23    39    40    1
    24    39    41    1
    25    47    48    1
    26    47    25    1
    27    44    43    1
    28    25    43    1
    29    25    26    1
    30     6     5    2
    31    43    45    1
    32    43    46    1
    33     5     1    1
    34    18    17    1
    35     9     8    1
    36    11    10    1
    37     8    10   ar
    38     8     7   ar
    39     1     7    1
    40     1     3    2
    41     1     4    2
    42    10    12   ar
    43     7    15   ar
    44    12    17    1
    45    12    13   ar
    46    17    20    1
    47    17    19    1
    48    15    13   ar
    49    15    16    1
    50    13    14    1
