@<TRIPOS>MOLECULE
1,3
 17 18 0 0 0
SMALL
GASTEIGER

@<TRIPOS>ATOM
      1 C          -0.0737    2.4601   10.2472 C.3     1  UNL1       -0.0315
      2 H          -1.0383    2.2516    9.7895 H       1  UNL1        0.0309
      3 C           0.7716    3.4872    9.7628 C.3     1  UNL1       -0.0315
      4 H           0.4913    4.1098    8.9153 H       1  UNL1        0.0309
      5 C           2.1679    2.8950    9.7635 C.3     1  UNL1       -0.0374
      6 H           3.0060    3.5841    9.7081 H       1  UNL1        0.0304
      7 C           2.1585    1.8695    8.6067 C.3     1  UNL1       -0.0497
      8 H           3.1687    1.4999    8.4251 H       1  UNL1        0.0268
      9 H           1.7874    2.3107    7.6816 H       1  UNL1        0.0268
     10 C           1.2411    0.7543    9.1372 C.3     1  UNL1       -0.0497
     11 H           0.3727    0.5879    8.4998 H       1  UNL1        0.0268
     12 H           1.7781   -0.1904    9.2334 H       1  UNL1        0.0268
     13 C           0.8310    1.2788   10.5311 C.3     1  UNL1       -0.0374
     14 H           0.4355    0.4963   11.1781 H       1  UNL1        0.0304
     15 C           2.1153    1.9720   10.9783 C.3     1  UNL1       -0.0468
     16 H           2.0008    2.5130   11.9190 H       1  UNL1        0.0271
     17 H           2.9708    1.2996   11.0521 H       1  UNL1        0.0271
@<TRIPOS>BOND
     1     9     7    1
     2     8     7    1
     3    11    10    1
     4     7    10    1
     5     7     5    1
     6     4     3    1
     7    10    12    1
     8    10    13    1
     9     6     5    1
    10     3     5    1
    11     3     1    1
    12     5    15    1
    13     2     1    1
    14     1    13    1
    15    13    15    1
    16    13    14    1
    17    15    17    1
    18    15    16    1
