@<TRIPOS>MOLECULE
1,2
 24 25 0 0 0
SMALL
GASTEIGER

@<TRIPOS>ATOM
      1 C           7.0702    4.6373    2.1949 C.2     1  UNL1       -0.0013
      2 C           6.3575    4.0628    3.1867 C.2     1  UNL1       -0.0013
      3 C           8.0561    5.7133    2.2276 C.ar    1  UNL1       -0.0167
      4 C           9.2276    5.5915    1.4732 C.ar    1  UNL1       -0.0540
      5 H           9.3826    4.6845    0.9014 H       1  UNL1        0.0624
      6 C          10.1704    6.6000    1.4703 C.ar    1  UNL1       -0.0612
      7 H          11.0752    6.4896    0.8902 H       1  UNL1        0.0618
      8 C           9.9548    7.7568    2.2034 C.ar    1  UNL1       -0.0617
      9 H          10.6879    8.5498    2.1935 H       1  UNL1        0.0618
     10 C           8.7950    7.8920    2.9489 C.ar    1  UNL1       -0.0612
     11 H           8.6246    8.7916    3.5229 H       1  UNL1        0.0618
     12 C           7.8545    6.8796    2.9688 C.ar    1  UNL1       -0.0540
     13 H           6.9520    6.9863    3.5530 H       1  UNL1        0.0624
     14 C           6.2873    4.2848    4.6223 C.ar    1  UNL1       -0.0167
     15 C           7.0477    3.5127    5.5043 C.ar    1  UNL1       -0.0540
     16 H           7.7190    2.7676    5.0983 H       1  UNL1        0.0624
     17 C           6.9446    3.7017    6.8683 C.ar    1  UNL1       -0.0612
     18 H           7.5439    3.1027    7.5386 H       1  UNL1        0.0618
     19 C           6.0763    4.6528    7.3806 C.ar    1  UNL1       -0.0617
     20 H           5.9963    4.7970    8.4477 H       1  UNL1        0.0618
     21 C           5.3078    5.4158    6.5163 C.ar    1  UNL1       -0.0612
     22 H           4.6253    6.1558    6.9094 H       1  UNL1        0.0618
     23 C           5.4079    5.2356    5.1502 C.ar    1  UNL1       -0.0540
     24 H           4.7983    5.8230    4.4741 H       1  UNL1        0.0624
@<TRIPOS>BOND
     1     7     6    1
     2     5     4    1
     3     6     4   ar
     4     6     8   ar
     5     4     3   ar
     6     9     8    1
     7     1     3    1
     8     1     2    2
     9     8    10   ar
    10     3    12   ar
    11    10    12   ar
    12    10    11    1
    13    12    13    1
    14     2    14    1
    15    24    23    1
    16    14    23   ar
    17    14    15   ar
    18    16    15    1
    19    23    21   ar
    20    15    17   ar
    21    21    22    1
    22    21    19   ar
    23    17    19   ar
    24    17    18    1
    25    19    20    1
