@<TRIPOS>MOLECULE
1,2
 22 22 0 0 0
SMALL
GASTEIGER

@<TRIPOS>ATOM
      1 C          15.6508    9.6518   10.2487 C.3     1  UNL1       -0.0349
      2 C          15.1784   10.0856   11.4779 C.3     1  UNL1       -0.0349
      3 C          15.9551    9.9232   12.7575 C.3     1  UNL1       -0.0497
      4 H          16.5915    9.0422   12.7148 H       1  UNL1        0.0268
      5 H          15.2766    9.8009   13.6009 H       1  UNL1        0.0268
      6 C          16.8017   11.1835   12.9948 C.3     1  UNL1       -0.0528
      7 H          16.1405   12.0038   13.2795 H       1  UNL1        0.0265
      8 H          17.4755   10.9939   13.8332 H       1  UNL1        0.0265
      9 C          17.6138   11.6362   11.7810 C.3     1  UNL1       -0.0530
     10 H          16.9331   11.9566   10.9930 H       1  UNL1        0.0265
     11 H          18.1868   12.5147   12.0856 H       1  UNL1        0.0265
     12 C          18.5765   10.5770   11.2268 C.3     1  UNL1       -0.0530
     13 H          19.5436   11.0479   11.0350 H       1  UNL1        0.0265
     14 H          18.7442    9.7991   11.9734 H       1  UNL1        0.0265
     15 C          18.1267    9.9339    9.9137 C.3     1  UNL1       -0.0528
     16 H          18.9777    9.3908    9.4939 H       1  UNL1        0.0265
     17 H          17.8556   10.7183    9.2040 H       1  UNL1        0.0265
     18 C          16.9609    8.9398   10.0408 C.3     1  UNL1       -0.0497
     19 H          16.9193    8.3651    9.1120 H       1  UNL1        0.0268
     20 H          17.1707    8.2404   10.8500 H       1  UNL1        0.0268
     21 H          15.3217   10.2072    9.3723 H       1  UNL1        0.0306
     22 H          14.5369   10.9661   11.4721 H       1  UNL1        0.0306
@<TRIPOS>BOND
     1    19    18    1
     2    17    15    1
     3    21     1    1
     4    16    15    1
     5    15    18    1
     6    15    12    1
     7    18     1    1
     8    18    20    1
     9     1     2    1
    10    10     9    1
    11    13    12    1
    12    12     9    1
    13    12    14    1
    14    22     2    1
    15     2     3    1
    16     9    11    1
    17     9     6    1
    18     4     3    1
    19     3     6    1
    20     3     5    1
    21     6     7    1
    22     6     8    1
