@<TRIPOS>MOLECULE
1,8
 14 14 0 0 0
SMALL
GASTEIGER

@<TRIPOS>ATOM
      1 C           8.9096    6.4705   13.6529 C.ar    1  UNL1       -0.0102
      2 C          10.0384    7.2521   13.8437 C.ar    1  UNL1       -0.0534
      3 C          10.9937    6.9300   14.8021 C.ar    1  UNL1       -0.0611
      4 C          10.8305    5.8084   15.5959 C.ar    1  UNL1       -0.0612
      5 C           9.7096    5.0128   15.4368 C.ar    1  UNL1       -0.0540
      6 C           8.7531    5.3361   14.4771 C.ar    1  UNL1       -0.0173
      7 C           7.5424    4.5554   14.2601 C.2     1  UNL1       -0.0540
      8 C           6.6987    4.9690   13.3125 C.2     1  UNL1       -0.0612
      9 H          10.1959    8.1474   13.2467 H       1  UNL1        0.0624
     10 H          11.8659    7.5583   14.9290 H       1  UNL1        0.0618
     11 H          11.5739    5.5575   16.3400 H       1  UNL1        0.0618
     12 H           9.5733    4.1373   16.0596 H       1  UNL1        0.0624
     13 H           7.3819    3.6738   14.8847 H       1  UNL1        0.0624
     14 H           5.7800    4.3954   13.1399 H       1  UNL1        0.0618
@<TRIPOS>BOND
     1    14     8    1
     2     9     2    1
     3     8     7    2
     4     1     2   ar
     5     1     6   ar
     6     2     3   ar
     7     7     6    1
     8     7    13    1
     9     6     5   ar
    10     3    10    1
    11     3     4   ar
    12     5     4   ar
    13     5    12    1
    14     4    11    1
