@<TRIPOS>MOLECULE
1,8
 16 16 0 0 0
SMALL
GASTEIGER

@<TRIPOS>ATOM
      1 C          10.4888    0.5237    5.2366 C.ar    1  UNL1       -0.0144
      2 C          11.5003   -0.4019    5.4810 C.ar    1  UNL1       -0.0538
      3 C          12.5334   -0.1437    6.3722 C.ar    1  UNL1       -0.0612
      4 C          12.5754    1.0587    7.0541 C.ar    1  UNL1       -0.0615
      5 C          11.5901    2.0031    6.8246 C.ar    1  UNL1       -0.0580
      6 C          10.5663    1.7449    5.9226 C.ar    1  UNL1       -0.0396
      7 C           9.5213    2.7791    5.5970 C.3     1  UNL1       -0.0271
      8 C           8.2751    2.0823    5.0435 C.3     1  UNL1       -0.0487
      9 H          11.5010   -1.3614    4.9727 H       1  UNL1        0.0624
     10 H          13.3044   -0.8854    6.5364 H       1  UNL1        0.0618
     11 H          13.3722    1.2608    7.7562 H       1  UNL1        0.0618
     12 H          11.6195    2.9510    7.3473 H       1  UNL1        0.0620
     13 H           9.9439    3.4713    4.8606 H       1  UNL1        0.0313
     14 H           9.2863    3.3762    6.4903 H       1  UNL1        0.0313
     15 H           7.6779    2.7888    4.4460 H       1  UNL1        0.0268
     16 H           7.6629    1.8202    5.9116 H       1  UNL1        0.0268
@<TRIPOS>BOND
     1    15     8    1
     2    13     7    1
     3     9     2    1
     4     8     7    1
     5     8    16    1
     6     1     2   ar
     7     1     6   ar
     8     2     3   ar
     9     7     6    1
    10     7    14    1
    11     6     5   ar
    12     3    10    1
    13     3     4   ar
    14     5     4   ar
    15     5    12    1
    16     4    11    1
