@<TRIPOS>MOLECULE
3,4
 19 18 0 0 0
SMALL
GASTEIGER

@<TRIPOS>ATOM
      1 SI          2.4104    5.2599    6.8040 Si      1  UNL1        0.0000
      2 C           0.4302    3.2517    9.2832 C.3     1  UNL1        0.0000
      3 C           1.4829    4.2846    9.4061 C.2     1  UNL1        0.0000
      4 C           2.2005    5.0813    8.6643 C.2     1  UNL1        0.0000
      5 C           1.3287    6.7107    6.1811 C.3     1  UNL1        0.0000
      6 C           1.8648    3.6482    5.9323 C.3     1  UNL1        0.0000
      7 C           4.2688    5.5733    6.4585 C.3     1  UNL1        0.0000
      8 H          -0.4322    3.6534    8.7518 H       1  UNL1        0.0000
      9 H           0.8142    2.3966    8.7273 H       1  UNL1        0.0000
     10 H           0.1153    2.9155   10.2696 H       1  UNL1        0.0000
     11 H           1.5076    7.6261    6.7368 H       1  UNL1        0.0000
     12 H           1.5238    6.9148    5.1328 H       1  UNL1        0.0000
     13 H           0.2736    6.4752    6.2773 H       1  UNL1        0.0000
     14 H           0.8066    3.4545    6.0745 H       1  UNL1        0.0000
     15 H           2.0474    3.7063    4.8633 H       1  UNL1        0.0000
     16 H           2.4126    2.7919    6.3142 H       1  UNL1        0.0000
     17 H           4.8351    5.5790    7.3863 H       1  UNL1        0.0000
     18 H           4.6859    4.7934    5.8289 H       1  UNL1        0.0000
     19 H           4.4415    6.5195    5.9541 H       1  UNL1        0.0000
@<TRIPOS>BOND
     1    15     6    1
     2    12     5    1
     3    18     7    1
     4     6    14    1
     5     6    16    1
     6     6     1    1
     7    19     7    1
     8     5    13    1
     9     5    11    1
    10     5     1    1
    11     7     1    1
    12     7    17    1
    13     1     4    1
    14     4     3    2
    15     9     2    1
    16     8     2    1
    17     2     3    1
    18     2    10    1
