@<TRIPOS>MOLECULE
5,10
 28 27 0 0 0
SMALL
GASTEIGER

@<TRIPOS>ATOM
      1 SI         14.0202    2.0814    6.9636 Si      1  UNL1        0.0000
      2 SI         11.9620    0.3460    3.7713 Si      1  UNL1        0.0000
      3 C          12.5674    2.0128    3.0593 C.3     1  UNL1        0.0000
      4 C          13.7040    3.9169    6.5388 C.3     1  UNL1        0.0000
      5 C          12.4527    1.1179    6.5841 C.2     1  UNL1        0.0000
      6 C          15.4598    1.3699    5.9242 C.3     1  UNL1        0.0000
      7 C          14.3932    1.8610    8.8209 C.3     1  UNL1        0.0000
      8 C          13.2028   -1.0518    3.3607 C.3     1  UNL1        0.0000
      9 C          10.2336   -0.0435    3.0522 C.3     1  UNL1        0.0000
     10 C          11.8054    0.5103    5.6358 C.2     1  UNL1        0.0000
     11 H          13.5375    2.2900    3.4580 H       1  UNL1        0.0000
     12 H          12.6527    1.9683    1.9776 H       1  UNL1        0.0000
     13 H          11.8719    2.8095    3.3049 H       1  UNL1        0.0000
     14 H          14.5631    4.5321    6.7884 H       1  UNL1        0.0000
     15 H          13.4937    4.0533    5.4827 H       1  UNL1        0.0000
     16 H          12.8515    4.2956    7.0945 H       1  UNL1        0.0000
     17 H          15.6008    0.3120    6.1219 H       1  UNL1        0.0000
     18 H          15.2840    1.4841    4.8600 H       1  UNL1        0.0000
     19 H          16.3899    1.8766    6.1616 H       1  UNL1        0.0000
     20 H          14.6486    0.8301    9.0503 H       1  UNL1        0.0000
     21 H          15.2172    2.4867    9.1512 H       1  UNL1        0.0000
     22 H          13.5199    2.1172    9.4135 H       1  UNL1        0.0000
     23 H          12.9324   -1.9876    3.8411 H       1  UNL1        0.0000
     24 H          13.2442   -1.2303    2.2907 H       1  UNL1        0.0000
     25 H          14.2037   -0.7949    3.6916 H       1  UNL1        0.0000
     26 H           9.4619    0.3626    3.7002 H       1  UNL1        0.0000
     27 H          10.1044    0.3926    2.0663 H       1  UNL1        0.0000
     28 H          10.0576   -1.1106    2.9616 H       1  UNL1        0.0000
@<TRIPOS>BOND
     1    12     3    1
     2    27     9    1
     3    24     8    1
     4    28     9    1
     5     9    26    1
     6     9     2    1
     7     3    13    1
     8     3    11    1
     9     3     2    1
    10     8    25    1
    11     8     2    1
    12     8    23    1
    13     2    10    1
    14    18     6    1
    15    15     4    1
    16    10     5    2
    17     6    17    1
    18     6    19    1
    19     6     1    1
    20     4    14    1
    21     4     1    1
    22     4    16    1
    23     5     1    1
    24     1     7    1
    25     7    20    1
    26     7    21    1
    27     7    22    1
