@<TRIPOS>MOLECULE
5,6
 19 18 0 0 0
SMALL
GASTEIGER

@<TRIPOS>ATOM
      1 SI          0.7078    1.1064   -4.3593 Si      1  UNL1        0.0000
      2 C          -0.0538   -0.1464   -3.1312 C.3     1  UNL1        0.0000
      3 C           0.2390    2.8928   -3.8697 C.3     1  UNL1        0.0000
      4 C           0.0797    0.7253   -6.1241 C.3     1  UNL1        0.0000
      5 C           2.5765    0.9621   -4.3679 C.2     1  UNL1        0.0000
      6 C           3.5179    0.5477   -5.1289 C.2     1  UNL1        0.0000
      7 C           3.8841   -0.1647   -6.3637 C.3     1  UNL1        0.0000
      8 H           0.0741    0.1752   -2.1023 H       1  UNL1        0.0000
      9 H          -1.1183   -0.2606   -3.3113 H       1  UNL1        0.0000
     10 H           0.4024   -1.1265   -3.2296 H       1  UNL1        0.0000
     11 H           0.1535    3.0016   -2.7926 H       1  UNL1        0.0000
     12 H           0.9969    3.5924   -4.2096 H       1  UNL1        0.0000
     13 H          -0.7089    3.1927   -4.3060 H       1  UNL1        0.0000
     14 H          -0.9968    0.8525   -6.1879 H       1  UNL1        0.0000
     15 H           0.5342    1.3862   -6.8553 H       1  UNL1        0.0000
     16 H           0.3065   -0.2960   -6.4132 H       1  UNL1        0.0000
     17 H           4.2077   -1.1763   -6.1161 H       1  UNL1        0.0000
     18 H           3.0379   -0.2152   -7.0483 H       1  UNL1        0.0000
     19 H           4.7192    0.3437   -6.8450 H       1  UNL1        0.0000
@<TRIPOS>BOND
     1    18     7    1
     2    15     4    1
     3    19     7    1
     4    16     4    1
     5     7    17    1
     6     7     6    1
     7    14     4    1
     8     4     1    1
     9     6     5    2
    10     5     1    1
    11     1     3    1
    12     1     2    1
    13    13     3    1
    14    12     3    1
    15     3    11    1
    16     9     2    1
    17    10     2    1
    18     2     8    1
