@<TRIPOS>MOLECULE
3,4
 37 36 0 0 0
SMALL
GASTEIGER

@<TRIPOS>ATOM
      1 SI          0.0320    1.0756    7.1578 Si      1  UNL1        0.0000
      2 C          -2.2805    3.8573    5.6521 C.3     1  UNL1        0.0000
      3 C          -1.5079    2.7060    5.1093 C.2     1  UNL1        0.0000
      4 C          -0.7121    1.7892    5.5853 C.2     1  UNL1        0.0000
      5 C          -1.2097   -0.2999    7.7045 C.3     1  UNL1        0.0000
      6 C          -0.6437   -1.1974    8.8030 C.3     1  UNL1        0.0000
      7 C          -1.6579   -1.1528    6.5204 C.3     1  UNL1        0.0000
      8 C           1.7620    0.3489    6.7018 C.3     1  UNL1        0.0000
      9 C           2.5024    1.2073    5.6763 C.3     1  UNL1        0.0000
     10 C           2.6658    0.1278    7.9151 C.3     1  UNL1        0.0000
     11 C           0.2091    2.3859    8.5685 C.3     1  UNL1        0.0000
     12 C           0.8081    3.6942    8.0564 C.3     1  UNL1        0.0000
     13 C          -1.1041    2.6530    9.3008 C.3     1  UNL1        0.0000
     14 H          -1.9550    4.7787    5.1685 H       1  UNL1        0.0000
     15 H          -3.3406    3.7174    5.4401 H       1  UNL1        0.0000
     16 H          -2.1460    3.9584    6.7276 H       1  UNL1        0.0000
     17 H          -2.1027    0.1905    8.1042 H       1  UNL1        0.0000
     18 H          -0.3060   -0.6100    9.6537 H       1  UNL1        0.0000
     19 H          -1.4013   -1.8981    9.1525 H       1  UNL1        0.0000
     20 H           0.1961   -1.7738    8.4243 H       1  UNL1        0.0000
     21 H          -0.8079   -1.6323    6.0428 H       1  UNL1        0.0000
     22 H          -2.1616   -0.5403    5.7743 H       1  UNL1        0.0000
     23 H          -2.3475   -1.9289    6.8505 H       1  UNL1        0.0000
     24 H           1.5876   -0.6241    6.2328 H       1  UNL1        0.0000
     25 H           1.9098    1.3394    4.7739 H       1  UNL1        0.0000
     26 H           3.4429    0.7330    5.3995 H       1  UNL1        0.0000
     27 H           2.7281    2.1908    6.0810 H       1  UNL1        0.0000
     28 H           2.9395    1.0794    8.3649 H       1  UNL1        0.0000
     29 H           3.5838   -0.3764    7.6157 H       1  UNL1        0.0000
     30 H           2.1764   -0.4791    8.6714 H       1  UNL1        0.0000
     31 H           0.9045    1.9787    9.3084 H       1  UNL1        0.0000
     32 H           1.8034    3.5289    7.6546 H       1  UNL1        0.0000
     33 H           0.8856    4.4225    8.8634 H       1  UNL1        0.0000
     34 H           0.1951    4.1181    7.2665 H       1  UNL1        0.0000
     35 H          -1.8765    2.9852    8.6128 H       1  UNL1        0.0000
     36 H          -0.9668    3.4247   10.0578 H       1  UNL1        0.0000
     37 H          -1.4583    1.7537    9.7962 H       1  UNL1        0.0000
@<TRIPOS>BOND
     1    25     9    1
     2     3     4    2
     3     3     2    1
     4    14     2    1
     5    26     9    1
     6    15     2    1
     7     4     1    1
     8     2    16    1
     9     9    27    1
    10     9     8    1
    11    22     7    1
    12    21     7    1
    13    24     8    1
    14     7    23    1
    15     7     5    1
    16     8     1    1
    17     8    10    1
    18     1     5    1
    19     1    11    1
    20    34    12    1
    21    29    10    1
    22    32    12    1
    23     5    17    1
    24     5     6    1
    25    10    28    1
    26    10    30    1
    27    12    11    1
    28    12    33    1
    29    20     6    1
    30    11    13    1
    31    11    31    1
    32    35    13    1
    33     6    19    1
    34     6    18    1
    35    13    37    1
    36    13    36    1
