@<TRIPOS>MOLECULE
1,4
 34 36 0 0 0
SMALL
GASTEIGER

@<TRIPOS>ATOM
      1 C          -2.2517    0.8339   13.2706 C.ar    1  UNL1       -0.0096
      2 C          -2.8483    1.2602   14.4848 C.ar    1  UNL1       -0.0090
      3 C          -2.5038    2.6256   14.9277 C.2     1  UNL1       -0.0019
      4 C          -1.6338    3.3164   14.1508 C.2     1  UNL1       -0.0013
      5 C          -2.5583   -0.4417   12.8146 C.ar    1  UNL1       -0.0534
      6 H          -2.1351   -0.7995   11.8757 H       1  UNL1        0.0624
      7 C          -3.4012   -1.2898   13.5279 C.ar    1  UNL1       -0.0611
      8 H          -3.6228   -2.2784   13.1500 H       1  UNL1        0.0618
      9 C          -3.9478   -0.8680   14.7262 C.ar    1  UNL1       -0.0611
     10 H          -4.5918   -1.5286   15.2894 H       1  UNL1        0.0618
     11 C          -3.6731    0.4018   15.2081 C.ar    1  UNL1       -0.0534
     12 H          -4.0975    0.7190   16.1506 H       1  UNL1        0.0624
     13 C          -3.0564    3.1542   16.1932 C.ar    1  UNL1       -0.0167
     14 C          -4.4314    3.2676   16.3853 C.ar    1  UNL1       -0.0540
     15 H          -5.1046    2.9608   15.5966 H       1  UNL1        0.0624
     16 C          -4.9340    3.7895   17.5633 C.ar    1  UNL1       -0.0612
     17 H          -6.0027    3.8757   17.6997 H       1  UNL1        0.0618
     18 C          -4.0723    4.2030   18.5654 C.ar    1  UNL1       -0.0617
     19 H          -4.4668    4.6086   19.4856 H       1  UNL1        0.0618
     20 C          -2.7035    4.0971   18.3818 C.ar    1  UNL1       -0.0612
     21 H          -2.0278    4.4203   19.1605 H       1  UNL1        0.0618
     22 C          -2.1984    3.5781   17.2046 C.ar    1  UNL1       -0.0540
     23 H          -1.1306    3.4923   17.0580 H       1  UNL1        0.0624
     24 C          -1.2174    4.6920   14.3799 C.ar    1  UNL1       -0.0167
     25 C          -2.1060    5.7085   14.7477 C.ar    1  UNL1       -0.0540
     26 H          -3.1479    5.4688   14.9075 H       1  UNL1        0.0624
     27 C          -1.6671    7.0107   14.8910 C.ar    1  UNL1       -0.0612
     28 H          -2.3685    7.7834   15.1716 H       1  UNL1        0.0618
     29 C          -0.3359    7.3311   14.6799 C.ar    1  UNL1       -0.0617
     30 H           0.0032    8.3496   14.7974 H       1  UNL1        0.0618
     31 C           0.5571    6.3375   14.3067 C.ar    1  UNL1       -0.0612
     32 H           1.5952    6.5860   14.1335 H       1  UNL1        0.0618
     33 C           0.1223    5.0370   14.1459 C.ar    1  UNL1       -0.0540
     34 H           0.8144    4.2540   13.8389 H       1  UNL1        0.0624
@<TRIPOS>BOND
     1     6     5    1
     2     5     1   ar
     3     5     7   ar
     4     8     7    1
     5     1     2   ar
     6     7     9   ar
     7    34    33    1
     8    32    31    1
     9    33    31   ar
    10    33    24   ar
    11     4    24    1
    12     4     3    2
    13    31    29   ar
    14    24    25   ar
    15     2     3    1
    16     2    11   ar
    17    29    30    1
    18    29    27   ar
    19     9    11   ar
    20     9    10    1
    21    25    27   ar
    22    25    26    1
    23    27    28    1
    24     3    13    1
    25    11    12    1
    26    15    14    1
    27    13    14   ar
    28    13    22   ar
    29    14    16   ar
    30    23    22    1
    31    22    20   ar
    32    16    17    1
    33    16    18   ar
    34    20    18   ar
    35    20    21    1
    36    18    19    1
