@<TRIPOS>MOLECULE
1,70
 85 86 0 0 0
SMALL
GASTEIGER

@<TRIPOS>ATOM
      1 C           7.7370   57.8660    6.0533 C.2     1  UNL1        0.0000
      2 C           7.7445   56.4006    5.8951 C.2     1  UNL1        0.0000
      3 C           9.2011   56.4013    6.1551 C.3     1  UNL1        0.0000
      4 C           9.2018   57.7933    6.2057 C.2     1  UNL1        0.0000
      5 C           6.5913   55.7500    5.6671 C.2     1  UNL1        0.0000
      6 SI         10.2856   54.9719    6.7340 Si      1  UNL1        0.0000
      7 C          10.8992   54.0331    5.1629 C.3     1  UNL1        0.0000
      8 H          11.7287   53.3773    5.4465 H       1  UNL1        0.0000
      9 C           9.7956   53.1565    4.5747 C.3     1  UNL1        0.0000
     10 H           8.9088   53.7477    4.3587 H       1  UNL1        0.0000
     11 H           9.5097   52.3661    5.2618 H       1  UNL1        0.0000
     12 H          10.1360   52.6894    3.6507 H       1  UNL1        0.0000
     13 C          11.4134   54.9871    4.0861 C.3     1  UNL1        0.0000
     14 H          11.7464   54.4302    3.2104 H       1  UNL1        0.0000
     15 H          12.2529   55.5730    4.4492 H       1  UNL1        0.0000
     16 H          10.6236   55.6680    3.7749 H       1  UNL1        0.0000
     17 C           9.0504   53.8479    7.6961 C.3     1  UNL1        0.0000
     18 H           8.2841   53.5400    6.9777 H       1  UNL1        0.0000
     19 C           8.3266   54.5741    8.8276 C.3     1  UNL1        0.0000
     20 H           7.5481   53.9378    9.2453 H       1  UNL1        0.0000
     21 H           7.8535   55.4877    8.4754 H       1  UNL1        0.0000
     22 H           9.0168   54.8280    9.6289 H       1  UNL1        0.0000
     23 C           9.7146   52.5872    8.2463 C.3     1  UNL1        0.0000
     24 H          10.4439   52.8402    9.0129 H       1  UNL1        0.0000
     25 H          10.2240   52.0325    7.4619 H       1  UNL1        0.0000
     26 H           8.9697   51.9335    8.6979 H       1  UNL1        0.0000
     27 C          11.7424   55.4746    7.8956 C.3     1  UNL1        0.0000
     28 H          11.9196   54.6102    8.5459 H       1  UNL1        0.0000
     29 C          13.0584   55.7597    7.1757 C.3     1  UNL1        0.0000
     30 H          12.9708   56.6480    6.5553 H       1  UNL1        0.0000
     31 H          13.3552   54.9211    6.5514 H       1  UNL1        0.0000
     32 H          13.8515   55.9379    7.9014 H       1  UNL1        0.0000
     33 C          11.3985   56.6570    8.8003 C.3     1  UNL1        0.0000
     34 H          12.1785   56.8012    9.5473 H       1  UNL1        0.0000
     35 H          10.4564   56.5007    9.3170 H       1  UNL1        0.0000
     36 H          11.3181   57.5708    8.2186 H       1  UNL1        0.0000
     37 C           6.3088   54.4252    5.3261 C.1     1  UNL1        0.0000
     38 C           5.9507   53.3149    4.9921 C.1     1  UNL1        0.0000
     39 SI          5.1708   51.6917    4.5502 Si      1  UNL1        0.0000
     40 C           5.6638   51.3081    2.7316 C.3     1  UNL1        0.0000
     41 H           5.3123   52.1419    2.1166 H       1  UNL1        0.0000
     42 C           5.0120   50.0316    2.2070 C.3     1  UNL1        0.0000
     43 H           5.2529   49.8818    1.1543 H       1  UNL1        0.0000
     44 H           3.9296   50.0759    2.3031 H       1  UNL1        0.0000
     45 H           5.3725   49.1649    2.7572 H       1  UNL1        0.0000
     46 C           7.1776   51.2267    2.5663 C.3     1  UNL1        0.0000
     47 H           7.5838   50.3982    3.1420 H       1  UNL1        0.0000
     48 H           7.6464   52.1434    2.9121 H       1  UNL1        0.0000
     49 H           7.4445   51.0691    1.5212 H       1  UNL1        0.0000
     50 C           3.2773   51.9716    4.6937 C.3     1  UNL1        0.0000
     51 H           2.7577   51.0159    4.5617 H       1  UNL1        0.0000
     52 C           2.9012   52.5189    6.0681 C.3     1  UNL1        0.0000
     53 H           3.3946   53.4722    6.2422 H       1  UNL1        0.0000
     54 H           3.1930   51.8348    6.8611 H       1  UNL1        0.0000
     55 H           1.8255   52.6767    6.1354 H       1  UNL1        0.0000
     56 C           2.7750   52.9282    3.6146 C.3     1  UNL1        0.0000
     57 H           1.6981   53.0660    3.7024 H       1  UNL1        0.0000
     58 H           2.9880   52.5466    2.6190 H       1  UNL1        0.0000
     59 H           3.2473   53.9023    3.7200 H       1  UNL1        0.0000
     60 C           5.8280   50.3227    5.7358 C.3     1  UNL1        0.0000
     61 H           6.7262   49.8893    5.2828 H       1  UNL1        0.0000
     62 C           4.8227   49.1892    5.9346 C.3     1  UNL1        0.0000
     63 H           5.2546   48.4023    6.5530 H       1  UNL1        0.0000
     64 H           4.5281   48.7494    4.9846 H       1  UNL1        0.0000
     65 H           3.9278   49.5536    6.4336 H       1  UNL1        0.0000
     66 C           6.2402   50.8938    7.0898 C.3     1  UNL1        0.0000
     67 H           5.3899   51.3427    7.5968 H       1  UNL1        0.0000
     68 H           6.9977   51.6619    6.9651 H       1  UNL1        0.0000
     69 H           6.6429   50.1088    7.7298 H       1  UNL1        0.0000
     70 C           5.4131   56.6935    5.8986 C.3     1  UNL1        0.0000
     71 C           4.2756   56.4942    5.0856 C.1     1  UNL1        0.0000
     72 N           3.3485   56.3596    4.4166 N.1     1  UNL1        0.0000
     73 C           5.1172   56.6514    7.2957 C.1     1  UNL1        0.0000
     74 N           4.9120   56.5462    8.4236 N.1     1  UNL1        0.0000
     75 C          10.2277   58.8017    6.2954 C.ar    1  UNL1        0.0000
     76 C          10.0407   59.9324    7.0924 C.ar    1  UNL1        0.0000
     77 H           9.1348   60.0145    7.6746 H       1  UNL1        0.0000
     78 C          11.0189   60.9040    7.1669 C.ar    1  UNL1        0.0000
     79 H          10.8718   61.7706    7.7956 H       1  UNL1        0.0000
     80 C          12.1913   60.7692    6.4392 C.ar    1  UNL1        0.0000
     81 H          12.9542   61.5314    6.4969 H       1  UNL1        0.0000
     82 C          12.3816   59.6549    5.6371 C.ar    1  UNL1        0.0000
     83 H          13.2927   59.5516    5.0656 H       1  UNL1        0.0000
     84 C          11.4101   58.6762    5.5641 C.ar    1  UNL1        0.0000
     85 H          11.5414   57.8154    4.9265 H       1  UNL1        0.0000
@<TRIPOS>BOND
     1    43    42    1
     2    49    46    1
     3    41    40    1
     4    42    44    1
     5    42    40    1
     6    42    45    1
     7    46    40    1
     8    46    48    1
     9    46    47    1
    10    58    56    1
    11    40    39    1
    12    14    13    1
    13    56    57    1
    14    56    59    1
    15    56    50    1
    16    12     9    1
    17    16    13    1
    18    13    15    1
    19    13     7    1
    20    10     9    1
    21    72    71    3
    22    39    50    1
    23    39    38    1
    24    39    60    1
    25    51    50    1
    26     9     7    1
    27     9    11    1
    28    50    52    1
    29    85    84    1
    30    64    62    1
    31    38    37    3
    32    83    82    1
    33    71    70    1
    34     7     8    1
    35     7     6    1
    36    61    60    1
    37    37     5    1
    38    84    82   ar
    39    84    75   ar
    40    82    80   ar
    41     5     2    2
    42     5    70    1
    43    60    62    1
    44    60    66    1
    45     2     1    1
    46     2     3    1
    47    70    73    1
    48    62    65    1
    49    62    63    1
    50     1     4    2
    51    52    55    1
    52    52    53    1
    53    52    54    1
    54     3     4    1
    55     3     6    1
    56     4    75    1
    57    75    76   ar
    58    80    81    1
    59    80    78   ar
    60    31    29    1
    61    30    29    1
    62     6    17    1
    63     6    27    1
    64    68    66    1
    65    18    17    1
    66    66    67    1
    67    66    69    1
    68    76    78   ar
    69    76    77    1
    70    78    79    1
    71    29    27    1
    72    29    32    1
    73    73    74    3
    74    25    23    1
    75    17    23    1
    76    17    19    1
    77    27    28    1
    78    27    33    1
    79    36    33    1
    80    23    26    1
    81    23    24    1
    82    21    19    1
    83    33    35    1
    84    33    34    1
    85    19    20    1
    86    19    22    1
