@<TRIPOS>MOLECULE
1,9
 16 15 0 0 0
SMALL
GASTEIGER

@<TRIPOS>ATOM
      1 C         -12.8818    4.5551   11.7428 C.2     1  UNL1       -0.0408
      2 C         -13.1000    6.0516   11.6875 C.3     1  UNL1       -0.0300
      3 H         -12.9797    6.3958   10.6543 H       1  UNL1        0.0311
      4 H         -14.1125    6.3132   12.0060 H       1  UNL1        0.0311
      5 C         -12.0911    6.8008   12.5617 C.3     1  UNL1       -0.0612
      6 H         -12.2355    6.5535   13.6112 H       1  UNL1        0.0233
      7 H         -12.2125    7.8760   12.4423 H       1  UNL1        0.0233
      8 H         -11.0754    6.5318   12.2802 H       1  UNL1        0.0233
      9 C         -13.4831    3.5518   12.3898 C.2     1  UNL1       -0.0408
     10 C         -14.6142    3.4022   13.3758 C.3     1  UNL1       -0.0300
     11 H         -14.2270    2.8540   14.2419 H       1  UNL1        0.0311
     12 H         -15.3798    2.7665   12.9168 H       1  UNL1        0.0311
     13 C         -15.2662    4.6979   13.8604 C.3     1  UNL1       -0.0612
     14 H         -16.0059    4.4794   14.6290 H       1  UNL1        0.0233
     15 H         -15.7698    5.2049   13.0413 H       1  UNL1        0.0233
     16 H         -14.5197    5.3651   14.2831 H       1  UNL1        0.0233
@<TRIPOS>BOND
     1     3     2    1
     2     2     1    1
     3     2     4    1
     4     2     5    1
     5     1     9    2
     6     8     5    1
     7     9    10    1
     8     7     5    1
     9     5     6    1
    10    12    10    1
    11    15    13    1
    12    10    13    1
    13    10    11    1
    14    13    16    1
    15    13    14    1
