@<TRIPOS>MOLECULE
1,9
 16 15 0 0 0
SMALL
GASTEIGER

@<TRIPOS>ATOM
      1 C           2.4747    2.6534    9.0209 C.2     1  UNL1       -0.0408
      2 C           3.1539    2.1547   10.2750 C.3     1  UNL1       -0.0300
      3 H           2.7754    1.1607   10.5369 H       1  UNL1        0.0311
      4 H           4.2362    2.0713   10.1230 H       1  UNL1        0.0311
      5 C           2.8913    3.1095   11.4434 C.3     1  UNL1       -0.0612
      6 H           1.8224    3.2082   11.6191 H       1  UNL1        0.0233
      7 H           3.2994    4.0950   11.2253 H       1  UNL1        0.0233
      8 H           3.3603    2.7367   12.3521 H       1  UNL1        0.0233
      9 C           1.2169    2.6188    8.5992 C.2     1  UNL1       -0.0408
     10 C          -0.0263    2.0082    9.2064 C.3     1  UNL1       -0.0300
     11 H          -0.9243    2.3426    8.6766 H       1  UNL1        0.0311
     12 H          -0.1196    2.3302   10.2493 H       1  UNL1        0.0311
     13 C           0.0377    0.4786    9.1656 C.3     1  UNL1       -0.0612
     14 H          -0.8759    0.0489    9.5723 H       1  UNL1        0.0233
     15 H           0.8790    0.1170    9.7503 H       1  UNL1        0.0233
     16 H           0.1631    0.1326    8.1426 H       1  UNL1        0.0233
@<TRIPOS>BOND
     1    16    13    1
     2     9     1    2
     3     9    10    1
     4    11    10    1
     5     1     2    1
     6    13    10    1
     7    13    14    1
     8    13    15    1
     9    10    12    1
    10     4     2    1
    11     2     3    1
    12     2     5    1
    13     7     5    1
    14     5     6    1
    15     5     8    1
