@<TRIPOS>MOLECULE
1,2
 24 25 0 0 0
SMALL
GASTEIGER

@<TRIPOS>ATOM
      1 C           0.8609    5.8749    3.0908 C.2     1  UNL1       -0.0013
      2 C           0.7627    4.6438    2.5261 C.2     1  UNL1       -0.0013
      3 C           0.0660    7.0670    2.8012 C.ar    1  UNL1       -0.0167
      4 C          -0.2490    7.9665    3.8245 C.ar    1  UNL1       -0.0540
      5 C          -1.0007    9.0967    3.5689 C.ar    1  UNL1       -0.0612
      6 C          -1.4389    9.3677    2.2824 C.ar    1  UNL1       -0.0617
      7 C          -1.1240    8.4929    1.2551 C.ar    1  UNL1       -0.0612
      8 C          -0.3864    7.3533    1.5090 C.ar    1  UNL1       -0.0540
      9 C          -0.2233    4.1186    1.5886 C.ar    1  UNL1       -0.0167
     10 C           0.1802    3.3711    0.4775 C.ar    1  UNL1       -0.0540
     11 C          -0.7490    2.8448   -0.3977 C.ar    1  UNL1       -0.0612
     12 C          -2.1035    3.0324   -0.1751 C.ar    1  UNL1       -0.0617
     13 C          -2.5190    3.7625    0.9272 C.ar    1  UNL1       -0.0612
     14 C          -1.5946    4.3066    1.7961 C.ar    1  UNL1       -0.0540
     15 H           0.0914    7.7539    4.8280 H       1  UNL1        0.0624
     16 H          -1.2442    9.7746    4.3747 H       1  UNL1        0.0618
     17 H          -2.0221   10.2544    2.0821 H       1  UNL1        0.0618
     18 H          -1.4632    8.6982    0.2497 H       1  UNL1        0.0618
     19 H          -0.1525    6.6720    0.7044 H       1  UNL1        0.0624
     20 H           1.2358    3.2195    0.3034 H       1  UNL1        0.0624
     21 H          -0.4167    2.2791   -1.2568 H       1  UNL1        0.0618
     22 H          -2.8300    2.6138   -0.8561 H       1  UNL1        0.0618
     23 H          -3.5740    3.9151    1.1058 H       1  UNL1        0.0618
     24 H          -1.9242    4.8830    2.6477 H       1  UNL1        0.0624
@<TRIPOS>BOND
     1    21    11    1
     2    22    12    1
     3    11    12   ar
     4    11    10   ar
     5    12    13   ar
     6    18     7    1
     7    20    10    1
     8    10     9   ar
     9    19     8    1
    10    13    23    1
    11    13    14   ar
    12     7     8   ar
    13     7     6   ar
    14     8     3   ar
    15     9    14   ar
    16     9     2    1
    17    14    24    1
    18    17     6    1
    19     6     5   ar
    20     2     1    2
    21     3     1    1
    22     3     4   ar
    23     5     4   ar
    24     5    16    1
    25     4    15    1
