@<TRIPOS>MOLECULE
13
 39 42 0 0 0
SMALL
GASTEIGER

@<TRIPOS>ATOM
      1 SI          4.6812    0.4635    2.5168 Si      1  UNL1        0.0000
      2 C           5.1101    3.6857    5.0018 C.2     1  UNL1        0.0000
      3 H           4.9526    4.7104    5.3143 H       1  UNL1        0.0000
      4 C           5.8850    2.7290    5.6962 C.2     1  UNL1        0.0000
      5 H           6.3910    2.8950    6.6388 H       1  UNL1        0.0000
      6 C           5.7150    1.4864    5.0597 C.2     1  UNL1        0.0000
      7 H           6.0952    0.5374    5.4201 H       1  UNL1        0.0000
      8 C           4.8071    1.6530    3.9792 C.3     1  UNL1        0.0000
      9 C           4.4673    3.0326    3.9348 C.2     1  UNL1        0.0000
     10 H           3.7308    3.4768    3.2744 H       1  UNL1        0.0000
     11 C           7.7107    2.6200    0.6257 C.ar    1  UNL1        0.0000
     12 C           6.3235    2.3053    0.8776 C.ar    1  UNL1        0.0000
     13 C           6.2387    1.1140    1.6810 C.3     1  UNL1        0.0000
     14 C           7.5951    0.6937    1.9127 C.ar    1  UNL1        0.0000
     15 C           8.5045    1.6019    1.2617 C.ar    1  UNL1        0.0000
     16 C           9.8767    1.3456    1.2600 C.ar    1  UNL1        0.0000
     17 H          10.5548    2.0128    0.7469 H       1  UNL1        0.0000
     18 C          10.3530    0.2152    1.8878 C.ar    1  UNL1        0.0000
     19 H          11.4111    0.0036    1.8886 H       1  UNL1        0.0000
     20 C           9.4778   -0.6642    2.5312 C.ar    1  UNL1        0.0000
     21 H           9.8793   -1.5472    3.0082 H       1  UNL1        0.0000
     22 C           8.1195   -0.4406    2.5566 C.ar    1  UNL1        0.0000
     23 H           7.4601   -1.1519    3.0339 H       1  UNL1        0.0000
     24 C           5.3296    3.0907    0.2633 C.ar    1  UNL1        0.0000
     25 H           4.2830    2.8514    0.3960 H       1  UNL1        0.0000
     26 C           5.7024    4.1292   -0.5606 C.ar    1  UNL1        0.0000
     27 H           4.9415    4.7150   -1.0567 H       1  UNL1        0.0000
     28 C           7.0485    4.4413   -0.7818 C.ar    1  UNL1        0.0000
     29 H           7.3001    5.2668   -1.4307 H       1  UNL1        0.0000
     30 C           8.0495    3.6959   -0.1979 C.ar    1  UNL1        0.0000
     31 H           9.0876    3.9224   -0.3996 H       1  UNL1        0.0000
     32 C           4.7411   -1.3678    3.0651 C.3     1  UNL1        0.0000
     33 H           5.0863   -2.0070    2.2595 H       1  UNL1        0.0000
     34 H           3.7487   -1.7033    3.3468 H       1  UNL1        0.0000
     35 H           5.3888   -1.5249    3.9206 H       1  UNL1        0.0000
     36 C           3.0657    0.6867    1.5139 C.3     1  UNL1        0.0000
     37 H           3.2167    0.4500    0.4660 H       1  UNL1        0.0000
     38 H           2.6739    1.6961    1.5779 H       1  UNL1        0.0000
     39 H           2.2980    0.0202    1.8917 H       1  UNL1        0.0000
@<TRIPOS>BOND
     1    29    28    1
     2    27    26    1
     3    28    26   ar
     4    28    30   ar
     5    26    24   ar
     6    31    30    1
     7    30    11   ar
     8    24    25    1
     9    24    12   ar
    10    37    36    1
    11    11    12   ar
    12    11    15    1
    13    17    16    1
    14    12    13    1
    15    16    15   ar
    16    16    18   ar
    17    15    14   ar
    18    36    38    1
    19    36    39    1
    20    36     1    1
    21    13    14    1
    22    13     1    1
    23    18    19    1
    24    18    20   ar
    25    14    22   ar
    26    33    32    1
    27     1    32    1
    28     1     8    1
    29    20    22   ar
    30    20    21    1
    31    22    23    1
    32    32    34    1
    33    32    35    1
    34    10     9    1
    35     9     8    1
    36     9     2    2
    37     8     6    1
    38     2     3    1
    39     2     4    1
    40     6     7    1
    41     6     4    2
    42     4     5    1
