@<TRIPOS>MOLECULE
5,7
 40 41 0 0 0
SMALL
GASTEIGER

@<TRIPOS>ATOM
      1 SI          0.2281   11.7720    2.7662 Si      1  UNL1        0.0000
      2 SI          4.1229    8.9422   -0.3785 Si      1  UNL1        0.0000
      3 C           2.8630   10.4733    3.1878 C.ar    1  UNL1        0.0000
      4 C           1.8695   11.0026    2.3058 C.2     1  UNL1        0.0000
      5 C           2.3171   10.7518    1.0122 C.2     1  UNL1        0.0000
      6 H           1.7177   10.9023    0.1218 H       1  UNL1        0.0000
      7 C           3.6095   10.1080    1.0059 C.3     1  UNL1        0.0000
      8 C           3.9242    9.9175    2.4059 C.ar    1  UNL1        0.0000
      9 C           4.9905    9.2760    3.0408 C.ar    1  UNL1        0.0000
     10 H           5.7888    8.8353    2.4587 H       1  UNL1        0.0000
     11 C           5.0011    9.1887    4.4166 C.ar    1  UNL1        0.0000
     12 H           5.8149    8.6822    4.9179 H       1  UNL1        0.0000
     13 C           3.9641    9.7349    5.1807 C.ar    1  UNL1        0.0000
     14 H           3.9939    9.6316    6.2575 H       1  UNL1        0.0000
     15 C           2.9038   10.3759    4.5795 C.ar    1  UNL1        0.0000
     16 H           2.0945   10.7765    5.1749 H       1  UNL1        0.0000
     17 C           0.4068   13.2426    3.9848 C.3     1  UNL1        0.0000
     18 H           1.0352   14.0314    3.5815 H       1  UNL1        0.0000
     19 H           0.8380   12.9310    4.9311 H       1  UNL1        0.0000
     20 H          -0.5637   13.6790    4.2022 H       1  UNL1        0.0000
     21 C          -0.6199   12.4412    1.1909 C.3     1  UNL1        0.0000
     22 H          -1.5602   12.9274    1.4317 H       1  UNL1        0.0000
     23 H          -0.8390   11.6410    0.4911 H       1  UNL1        0.0000
     24 H           0.0049   13.1677    0.6796 H       1  UNL1        0.0000
     25 C          -0.9197   10.4797    3.5853 C.3     1  UNL1        0.0000
     26 H          -1.8669   10.9205    3.8823 H       1  UNL1        0.0000
     27 H          -0.4622   10.0529    4.4723 H       1  UNL1        0.0000
     28 H          -1.1352    9.6598    2.9070 H       1  UNL1        0.0000
     29 C           3.6639    9.7514   -2.0544 C.3     1  UNL1        0.0000
     30 H           3.9387    9.1048   -2.8817 H       1  UNL1        0.0000
     31 H           4.1725   10.7037   -2.1994 H       1  UNL1        0.0000
     32 H           2.5960    9.9307   -2.1289 H       1  UNL1        0.0000
     33 C           3.1909    7.2777   -0.2309 C.3     1  UNL1        0.0000
     34 H           3.4833    6.5838   -1.0131 H       1  UNL1        0.0000
     35 H           2.1171    7.4214   -0.2984 H       1  UNL1        0.0000
     36 H           3.3953    6.8054    0.7251 H       1  UNL1        0.0000
     37 C           6.0020    8.5679   -0.3977 C.3     1  UNL1        0.0000
     38 H           6.2531    7.7941    0.3205 H       1  UNL1        0.0000
     39 H           6.6012    9.4445   -0.1667 H       1  UNL1        0.0000
     40 H           6.3080    8.2078   -1.3753 H       1  UNL1        0.0000
@<TRIPOS>BOND
     1    30    29    1
     2    31    29    1
     3    32    29    1
     4    29     2    1
     5    40    37    1
     6    34    33    1
     7    37     2    1
     8    37    39    1
     9    37    38    1
    10     2    33    1
    11     2     7    1
    12    35    33    1
    13    33    36    1
    14     6     5    1
    15    23    21    1
    16    24    21    1
    17     7     5    1
    18     7     8    1
    19     5     4    2
    20    21    22    1
    21    21     1    1
    22     4     1    1
    23     4     3    1
    24     8     9   ar
    25     8     3   ar
    26    10     9    1
    27     1    25    1
    28     1    17    1
    29    28    25    1
    30     9    11   ar
    31     3    15   ar
    32    18    17    1
    33    25    26    1
    34    25    27    1
    35    17    20    1
    36    17    19    1
    37    11    12    1
    38    11    13   ar
    39    15    16    1
    40    15    13   ar
    41    13    14    1
