@<TRIPOS>MOLECULE
1,3
 12 11 0 0 0
SMALL
GASTEIGER

@<TRIPOS>ATOM
      1 C           8.0107   -5.6174   11.8836 C.3     1  UNL1       -0.0497
      2 H           7.1772   -5.1248   11.3801 H       1  UNL1        0.0268
      3 C           8.8791   -4.6912   12.6792 C.3     1  UNL1       -0.0385
      4 H           9.9424   -4.8613   12.4773 H       1  UNL1        0.0303
      5 C           8.5694   -3.2096   12.5471 C.3     1  UNL1       -0.0528
      6 H           9.1082   -2.6447   13.3119 H       1  UNL1        0.0265
      7 H           7.4982   -3.0519   12.6998 H       1  UNL1        0.0265
      8 C           8.9708   -2.6667   11.1735 C.3     1  UNL1       -0.0650
      9 H           8.4522   -3.2050   10.3842 H       1  UNL1        0.0230
     10 H           8.7230   -1.6106   11.0925 H       1  UNL1        0.0230
     11 H          10.0414   -2.7819   11.0197 H       1  UNL1        0.0230
     12 H           8.5520   -6.2482   11.1790 H       1  UNL1        0.0268
@<TRIPOS>BOND
     1     9     8    1
     2    11     8    1
     3    10     8    1
     4     8     5    1
     5    12     1    1
     6     2     1    1
     7     1     3    1
     8     4     3    1
     9     5     3    1
    10     5     7    1
    11     5     6    1
