@<TRIPOS>MOLECULE
1,2
 16 16 0 0 0
SMALL
GASTEIGER

@<TRIPOS>ATOM
      1 C           8.6956    0.7124    4.1266 C.3     1  UNL1       -0.0451
      2 C           7.6266    0.6072    3.1125 C.3     1  UNL1       -0.0090
      3 C           6.4759    1.5161    3.0760 C.ar    1  UNL1       -0.0437
      4 C           6.3487    2.6598    3.8706 C.ar    1  UNL1       -0.0583
      5 C           5.2447    3.4850    3.7604 C.ar    1  UNL1       -0.0615
      6 C           4.2381    3.2024    2.8545 C.ar    1  UNL1       -0.0617
      7 C           4.3395    2.0679    2.0637 C.ar    1  UNL1       -0.0615
      8 C           5.4342    1.2378    2.1797 C.ar    1  UNL1       -0.0583
      9 H           8.9670   -0.2397    4.5903 H       1  UNL1        0.0271
     10 H           8.5419    1.4674    4.9026 H       1  UNL1        0.0271
     11 H           7.3291   -0.4220    2.8708 H       1  UNL1        0.0355
     12 H           7.1097    2.9148    4.5955 H       1  UNL1        0.0620
     13 H           5.1729    4.3592    4.3918 H       1  UNL1        0.0618
     14 H           3.3791    3.8516    2.7712 H       1  UNL1        0.0618
     15 H           3.5549    1.8287    1.3596 H       1  UNL1        0.0618
     16 H           5.4995    0.3448    1.5702 H       1  UNL1        0.0620
@<TRIPOS>BOND
     1    15     7    1
     2    16     8    1
     3     7     8   ar
     4     7     6   ar
     5     8     3   ar
     6    14     6    1
     7     6     5   ar
     8    11     2    1
     9     3     2    1
    10     3     4   ar
    11     2     1    1
    12     5     4   ar
    13     5    13    1
    14     4    12    1
    15     1     9    1
    16     1    10    1
