@<TRIPOS>MOLECULE
1,12
 22 22 0 0 0
SMALL
GASTEIGER

@<TRIPOS>ATOM
      1 C           1.3970    2.2580    6.4767 C.ar    1  UNL1       -0.0139
      2 C           2.6295    1.7095    6.7999 C.ar    1  UNL1       -0.0537
      3 H           3.3286    2.2902    7.3866 H       1  UNL1        0.0624
      4 C           2.9801    0.4337    6.3941 C.ar    1  UNL1       -0.0612
      5 H           3.9421    0.0212    6.6623 H       1  UNL1        0.0618
      6 C           2.0856   -0.3140    5.6476 C.ar    1  UNL1       -0.0614
      7 H           2.3410   -1.3166    5.3360 H       1  UNL1        0.0618
      8 C           0.8664    0.2302    5.2900 C.ar    1  UNL1       -0.0575
      9 H           0.1811   -0.3581    4.6974 H       1  UNL1        0.0621
     10 C           0.5214    1.5180    5.6866 C.ar    1  UNL1       -0.0340
     11 C          -0.8058    2.1392    5.2924 C.3     1  UNL1       -0.0093
     12 C          -0.7719    3.6352    5.6041 C.3     1  UNL1       -0.0431
     13 H          -1.7921    3.9889    5.7541 H       1  UNL1        0.0274
     14 H          -0.3629    4.1590    4.7317 H       1  UNL1        0.0274
     15 C          -1.0635    1.9510    3.7867 C.3     1  UNL1       -0.0558
     16 H          -1.9411    2.5207    3.4863 H       1  UNL1        0.0238
     17 H          -1.2427    0.9069    3.5435 H       1  UNL1        0.0238
     18 H          -0.2082    2.2979    3.2108 H       1  UNL1        0.0238
     19 C          -1.9349    1.4535    6.0745 C.3     1  UNL1       -0.0558
     20 H          -2.9027    1.8446    5.7638 H       1  UNL1        0.0238
     21 H          -1.8095    1.6223    7.1402 H       1  UNL1        0.0238
     22 H          -1.9259    0.3805    5.8967 H       1  UNL1        0.0238
@<TRIPOS>BOND
     1    18    15    1
     2    16    15    1
     3    17    15    1
     4    15    11    1
     5     9     8    1
     6    14    12    1
     7     8     6   ar
     8     8    10   ar
     9    11    12    1
    10    11    10    1
    11    11    19    1
    12     7     6    1
    13    12    13    1
    14     6     4   ar
    15    10     1   ar
    16    20    19    1
    17    22    19    1
    18    19    21    1
    19     4     5    1
    20     4     2   ar
    21     1     2   ar
    22     2     3    1
