@<TRIPOS>MOLECULE
1,4
 8 7 0 0 0
SMALL
GASTEIGER

@<TRIPOS>ATOM
      1 C          13.6077    4.8080   19.3956 C.3     1  UNL1       -0.0316
      2 H          14.6942    4.9446   19.4931 H       1  UNL1        0.0310
      3 H          13.0774    5.6903   19.7691 H       1  UNL1        0.0310
      4 C          13.2354    4.4886   18.0226 C.2     1  UNL1       -0.0908
      5 H          12.2202    4.7413   17.7218 H       1  UNL1        0.0566
      6 C          14.0562    3.9729   17.0930 C.2     1  UNL1       -0.1026
      7 H          15.1007    3.7948   17.2989 H       1  UNL1        0.0532
      8 H          13.7242    3.7668   16.0907 H       1  UNL1        0.0532
@<TRIPOS>BOND
     1     8     6    1
     2     6     7    1
     3     6     4    2
     4     5     4    1
     5     4     1    1
     6     1     2    1
     7     1     3    1
