@<TRIPOS>MOLECULE
3,24
 46 48 0 0 0
SMALL
GASTEIGER

@<TRIPOS>ATOM
      1 N           0.4033    9.6140    5.4835 N.pl3   1  UNL1       -0.2762
      2 N          -1.2412    8.8186    6.5879 N.pl3   1  UNL1       -0.2762
      3 C          -0.4372    8.5513    5.5276 C.3     1  UNL1        0.1959
      4 C           0.1361   10.5092    6.4850 C.2     1  UNL1        0.0131
      5 H           0.7068   11.4042    6.6220 H       1  UNL1        0.0797
      6 C          -0.9059   10.0092    7.1864 C.2     1  UNL1        0.0131
      7 H          -1.4382   10.3950    8.0314 H       1  UNL1        0.0797
      8 C           1.4368    9.7949    4.5208 C.ar    1  UNL1        0.0417
      9 C           2.4577    8.8096    4.4478 C.ar    1  UNL1       -0.0252
     10 C           3.4355    9.0003    3.4475 C.ar    1  UNL1       -0.0539
     11 H           4.2234    8.2636    3.3633 H       1  UNL1        0.0623
     12 C           3.4268   10.0880    2.6029 C.ar    1  UNL1       -0.0498
     13 C           2.4171   11.0419    2.7263 C.ar    1  UNL1       -0.0541
     14 H           2.4142   11.9069    2.0784 H       1  UNL1        0.0623
     15 C           1.4147   10.8992    3.6792 C.ar    1  UNL1       -0.0286
     16 C           4.4856   10.2634    1.5533 C.3     1  UNL1       -0.0397
     17 H           5.2173    9.4609    1.6023 H       1  UNL1        0.0278
     18 H           5.0017   11.2133    1.6882 H       1  UNL1        0.0278
     19 H           4.0399   10.2653    0.5582 H       1  UNL1        0.0278
     20 C           0.3431   11.9537    3.7646 C.3     1  UNL1       -0.0379
     21 H          -0.5882   11.5626    4.1713 H       1  UNL1        0.0278
     22 H           0.1442   12.3658    2.7767 H       1  UNL1        0.0278
     23 H           0.6703   12.7761    4.4024 H       1  UNL1        0.0278
     24 C           2.4848    7.6828    5.3310 C.3     1  UNL1       -0.0219
     25 H           2.1742    7.9169    6.3532 H       1  UNL1        0.0317
     26 H           3.4395    7.1562    5.3244 H       1  UNL1        0.0317
     27 C          -2.3188    8.0260    7.0567 C.ar    1  UNL1        0.0414
     28 C          -3.4980    7.9621    6.3147 C.ar    1  UNL1       -0.0286
     29 C          -4.5654    7.2363    6.8230 C.ar    1  UNL1       -0.0541
     30 H          -5.4888    7.1932    6.2626 H       1  UNL1        0.0623
     31 C          -4.4770    6.5712    8.0371 C.ar    1  UNL1       -0.0498
     32 C          -3.2909    6.6489    8.7534 C.ar    1  UNL1       -0.0541
     33 H          -3.2086    6.1321    9.6983 H       1  UNL1        0.0623
     34 C          -2.2059    7.3754    8.2870 C.ar    1  UNL1       -0.0286
     35 C          -5.6262    5.7656    8.5602 C.3     1  UNL1       -0.0397
     36 H          -5.4373    4.7041    8.3996 H       1  UNL1        0.0278
     37 H          -6.5511    6.0285    8.0530 H       1  UNL1        0.0278
     38 H          -5.7525    5.9231    9.6292 H       1  UNL1        0.0278
     39 C          -0.9425    7.4605    9.0862 C.3     1  UNL1       -0.0379
     40 H          -0.0716    7.3851    8.4377 H       1  UNL1        0.0278
     41 H          -0.9031    6.6550    9.8143 H       1  UNL1        0.0278
     42 H          -0.8903    8.4079    9.6238 H       1  UNL1        0.0278
     43 C          -3.5928    8.6537    4.9895 C.3     1  UNL1       -0.0379
     44 H          -4.6168    8.6520    4.6242 H       1  UNL1        0.0278
     45 H          -2.9529    8.1390    4.2733 H       1  UNL1        0.0278
     46 H          -3.2505    9.6852    5.0626 H       1  UNL1        0.0278
@<TRIPOS>BOND
     1    19    16    1
     2    16    17    1
     3    16    18    1
     4    16    12    1
     5    14    13    1
     6    12    13   ar
     7    12    10   ar
     8    13    15   ar
     9    22    20    1
    10    11    10    1
    11    10     9   ar
    12    15    20    1
    13    15     8   ar
    14    20    21    1
    15    20    23    1
    16    45    43    1
    17     9     8   ar
    18     9    24    1
    19     8     1    1
    20    44    43    1
    21    43    46    1
    22    43    28    1
    23    26    24    1
    24    24    25    1
    25     1     3    1
    26     1     4    1
    27     3     2    1
    28    30    29    1
    29    28    29   ar
    30    28    27   ar
    31     4     5    1
    32     4     6    2
    33     2    27    1
    34     2     6    1
    35    29    31   ar
    36    27    34   ar
    37     6     7    1
    38    31    35    1
    39    31    32   ar
    40    37    35    1
    41    34    32   ar
    42    34    39    1
    43    36    35    1
    44    40    39    1
    45    35    38    1
    46    32    33    1
    47    39    42    1
    48    39    41    1
