@<TRIPOS>MOLECULE
3,4
 10 10 0 0 0
SMALL
GASTEIGER

@<TRIPOS>ATOM
      1 C           0.4552    2.2771   12.3514 C.2     1  UNL1       -0.0837
      2 C           0.6681    3.5522   12.8850 C.3     1  UNL1       -0.0127
      3 C           1.7157    4.1669   12.1850 C.3     1  UNL1       -0.0235
      4 C           2.1567    3.2444   11.1745 C.3     1  UNL1       -0.0127
      5 C           1.3627    2.0717   11.3297 C.2     1  UNL1       -0.0837
      6 H          -0.3050    1.5870   12.6728 H       1  UNL1        0.0572
      7 H           0.1172    3.9934   13.7005 H       1  UNL1        0.0352
      8 H           2.2887    4.9997   12.5774 H       1  UNL1        0.0315
      9 H           3.1673    3.1866   10.7853 H       1  UNL1        0.0352
     10 H           1.4653    1.1827   10.7302 H       1  UNL1        0.0572
@<TRIPOS>BOND
     1    10     5    1
     2     9     4    1
     3     4     5    1
     4     4     3    1
     5     5     1    2
     6     3     8    1
     7     3     2    1
     8     1     6    1
     9     1     2    1
    10     2     7    1
