@<TRIPOS>MOLECULE
5,6
 10 9 0 0 0
SMALL
GASTEIGER

@<TRIPOS>ATOM
      1 C          -0.2146   11.0961    2.0958 C.3     1  UNL1       -0.0392
      2 H          -0.8741   11.6580    2.7590 H       1  UNL1        0.0278
      3 H          -0.8002   10.7513    1.2417 H       1  UNL1        0.0278
      4 H           0.5524   11.7804    1.7264 H       1  UNL1        0.0278
      5 C           0.4220    9.9619    2.8338 C.2     1  UNL1       -0.0441
      6 C           1.6529    9.7915    3.2743 C.2     1  UNL1       -0.0441
      7 C           2.9129   10.5783    3.2701 C.3     1  UNL1       -0.0392
      8 H           2.9538   11.2283    2.3936 H       1  UNL1        0.0278
      9 H           3.7913    9.9351    3.2716 H       1  UNL1        0.0278
     10 H           2.9588   11.2067    4.1604 H       1  UNL1        0.0278
@<TRIPOS>BOND
     1     3     1    1
     2     4     1    1
     3     1     2    1
     4     1     5    1
     5     8     7    1
     6     5     6    2
     7     7     9    1
     8     7     6    1
     9     7    10    1
