@<TRIPOS>MOLECULE
1,2
 25 25 0 0 0
SMALL
GASTEIGER

@<TRIPOS>ATOM
      1 C           8.0602    8.5160   10.1202 C.2     1  UNL1       -0.0584
      2 C           9.0505    9.2567    9.3903 C.3     1  UNL1        0.0231
      3 C           9.3483    8.5274    8.2120 C.2     1  UNL1       -0.0584
      4 C           8.5483    7.3574    8.2021 C.2     1  UNL1       -0.0477
      5 C           7.7380    7.3582    9.3450 C.2     1  UNL1       -0.0477
      6 C           7.1812    9.1223   11.1744 C.3     1  UNL1       -0.0424
      7 H           7.7348    9.8401   11.7749 H       1  UNL1        0.0275
      8 H           6.7528    8.3670   11.8318 H       1  UNL1        0.0275
      9 H           6.3534    9.6532   10.6977 H       1  UNL1        0.0275
     10 C           9.3876   10.6962    9.6387 C.3     1  UNL1       -0.0510
     11 H          10.3049   10.9798    9.1286 H       1  UNL1        0.0242
     12 H           9.5073   10.9012   10.7005 H       1  UNL1        0.0242
     13 H           8.5846   11.3333    9.2610 H       1  UNL1        0.0242
     14 C          10.2181    9.0041    7.0916 C.3     1  UNL1       -0.0424
     15 H           9.6207    9.5639    6.3687 H       1  UNL1        0.0275
     16 H          10.6815    8.1726    6.5640 H       1  UNL1        0.0275
     17 H          11.0045    9.6631    7.4549 H       1  UNL1        0.0275
     18 C           8.5135    6.2961    7.1489 C.3     1  UNL1       -0.0395
     19 H           8.5286    5.3061    7.6064 H       1  UNL1        0.0278
     20 H           9.3597    6.3812    6.4706 H       1  UNL1        0.0278
     21 H           7.5989    6.3725    6.5571 H       1  UNL1        0.0278
     22 C           6.6716    6.3495    9.6276 C.3     1  UNL1       -0.0395
     23 H           5.9740    6.3012    8.7900 H       1  UNL1        0.0278
     24 H           6.1100    6.5997   10.5247 H       1  UNL1        0.0278
     25 H           7.0992    5.3523    9.7520 H       1  UNL1        0.0278
@<TRIPOS>BOND
     1    15    14    1
     2    20    18    1
     3    21    18    1
     4    16    14    1
     5    14    17    1
     6    14     3    1
     7    18    19    1
     8    18     4    1
     9     4     3    2
    10     4     5    1
    11     3     2    1
    12    23    22    1
    13    11    10    1
    14    13    10    1
    15     5    22    1
    16     5     1    2
    17     2    10    1
    18     2     1    1
    19    22    25    1
    20    22    24    1
    21    10    12    1
    22     1     6    1
    23     9     6    1
    24     6     7    1
    25     6     8    1
