@<TRIPOS>MOLECULE
1,4
 12 11 0 0 0
SMALL
GASTEIGER

@<TRIPOS>ATOM
      1 C           6.0676    4.2570   24.8007 C.3     1  UNL1       -0.0531
      2 C           7.1330    4.0874   25.9037 C.3     1  UNL1       -0.0531
      3 C           6.5518    3.3451   27.1200 C.3     1  UNL1       -0.0531
      4 C           6.0221    1.9622   26.6926 C.3     1  UNL1       -0.0531
      5 H           6.5673    4.5766   23.8684 H       1  UNL1        0.0265
      6 H           5.4195    5.1081   25.0951 H       1  UNL1        0.0265
      7 H           7.9771    3.5002   25.5179 H       1  UNL1        0.0265
      8 H           7.5408    5.0576   26.2358 H       1  UNL1        0.0265
      9 H           7.3335    3.2691   27.8968 H       1  UNL1        0.0265
     10 H           5.7255    3.9367   27.5408 H       1  UNL1        0.0265
     11 H           6.8980    1.3513   26.3911 H       1  UNL1        0.0265
     12 H           5.5903    1.4635   27.5787 H       1  UNL1        0.0265
@<TRIPOS>BOND
     1     5     1    1
     2     1     6    1
     3     1     2    1
     4     7     2    1
     5     2     8    1
     6     2     3    1
     7    11     4    1
     8     4     3    1
     9     4    12    1
    10     3    10    1
    11     3     9    1
