@<TRIPOS>MOLECULE
1,2
 25 26 0 0 0
SMALL
GASTEIGER

@<TRIPOS>ATOM
      1 C           4.8356   10.1584    6.4743 C.3     1  UNL1        0.0252
      2 C           5.5051    8.9919    5.9194 C.3     1  UNL1        0.0032
      3 C           3.8374   10.2451    7.4675 C.ar    1  UNL1       -0.0388
      4 C           3.2235   11.4881    7.7357 C.ar    1  UNL1       -0.0580
      5 C           2.2393   11.6054    8.6898 C.ar    1  UNL1       -0.0615
      6 C           1.8328   10.4950    9.4203 C.ar    1  UNL1       -0.0617
      7 C           2.4281    9.2641    9.1795 C.ar    1  UNL1       -0.0615
      8 C           3.4131    9.1340    8.2256 C.ar    1  UNL1       -0.0580
      9 C           6.5897    8.3884    6.7085 C.ar    1  UNL1       -0.0428
     10 C           6.5966    7.0161    6.9781 C.ar    1  UNL1       -0.0583
     11 C           7.5953    6.4369    7.7377 C.ar    1  UNL1       -0.0615
     12 C           8.6125    7.2136    8.2657 C.ar    1  UNL1       -0.0617
     13 C           8.6126    8.5793    8.0263 C.ar    1  UNL1       -0.0615
     14 C           7.6215    9.1560    7.2578 C.ar    1  UNL1       -0.0583
     15 H           4.8403    8.2077    5.5291 H       1  UNL1        0.0364
     16 H           3.5519   12.3426    7.1576 H       1  UNL1        0.0620
     17 H           1.7787   12.5660    8.8780 H       1  UNL1        0.0618
     18 H           1.0646   10.5902   10.1735 H       1  UNL1        0.0618
     19 H           2.1164    8.3996    9.7498 H       1  UNL1        0.0618
     20 H           3.8819    8.1767    8.0507 H       1  UNL1        0.0620
     21 H           5.7934    6.3977    6.5995 H       1  UNL1        0.0620
     22 H           7.5769    5.3722    7.9258 H       1  UNL1        0.0618
     23 H           9.3935    6.7613    8.8592 H       1  UNL1        0.0618
     24 H           9.3993    9.1961    8.4387 H       1  UNL1        0.0618
     25 H           7.6336   10.2208    7.0604 H       1  UNL1        0.0620
@<TRIPOS>BOND
     1    15     2    1
     2     2     1    1
     3     2     9    1
     4     1     3    1
     5    21    10    1
     6     9    10   ar
     7     9    14   ar
     8    10    11   ar
     9    25    14    1
    10    16     4    1
    11    14    13   ar
    12     3     4   ar
    13     3     8   ar
    14     4     5   ar
    15    11    22    1
    16    11    12   ar
    17    13    12   ar
    18    13    24    1
    19    20     8    1
    20     8     7   ar
    21    12    23    1
    22     5    17    1
    23     5     6   ar
    24     7     6   ar
    25     7    19    1
    26     6    18    1
