@<TRIPOS>MOLECULE
4,5
 44 44 0 0 0
SMALL
GASTEIGER

@<TRIPOS>ATOM
      1 SI          2.1359   15.2709   17.2227 Si      1  UNL1        0.0000
      2 SI          4.2957   11.1008   12.8773 Si      1  UNL1        0.0000
      3 SI          2.4526   12.3781   15.4029 Si      1  UNL1        0.0000
      4 C           2.6484   14.2083   15.8024 C.3     1  UNL1        0.0000
      5 C           3.5669   12.4741   13.8809 C.3     1  UNL1        0.0000
      6 C           3.0203   14.8224   18.8745 C.3     1  UNL1        0.0000
      7 C           2.5905   17.0867   16.7641 C.3     1  UNL1        0.0000
      8 C           0.2801   15.2997   17.7201 C.3     1  UNL1        0.0000
      9 C           3.4842   10.8230   11.1540 C.3     1  UNL1        0.0000
     10 C           4.2380    9.3969   13.7512 C.3     1  UNL1        0.0000
     11 C           6.1414   11.5237   12.5522 C.3     1  UNL1        0.0000
     12 C           2.9076   11.1341   16.7963 C.3     1  UNL1        0.0000
     13 C           0.6679   11.8848   14.9277 C.ar    1  UNL1        0.0000
     14 C          -0.4083   12.2118   15.7431 C.ar    1  UNL1        0.0000
     15 C          -1.7017   11.8471   15.4117 C.ar    1  UNL1        0.0000
     16 C          -1.9436   11.1379   14.2471 C.ar    1  UNL1        0.0000
     17 C          -0.8826   10.7898   13.4284 C.ar    1  UNL1        0.0000
     18 C           0.4063   11.1600   13.7720 C.ar    1  UNL1        0.0000
     19 H           2.7290   15.4978   19.6741 H       1  UNL1        0.0000
     20 H           4.1023   14.8536   18.7958 H       1  UNL1        0.0000
     21 H           2.7480   13.8178   19.1829 H       1  UNL1        0.0000
     22 H           3.0816   17.6041   17.5831 H       1  UNL1        0.0000
     23 H           1.7041   17.6611   16.5116 H       1  UNL1        0.0000
     24 H           3.2556   17.1183   15.9042 H       1  UNL1        0.0000
     25 H           0.0613   16.1605   18.3468 H       1  UNL1        0.0000
     26 H           0.0200   14.4130   18.2895 H       1  UNL1        0.0000
     27 H          -0.3790   15.3445   16.8593 H       1  UNL1        0.0000
     28 H           4.0567   10.1080   10.5695 H       1  UNL1        0.0000
     29 H           3.4307   11.7429   10.5819 H       1  UNL1        0.0000
     30 H           2.4746   10.4338   11.2424 H       1  UNL1        0.0000
     31 H           4.6346    8.6062   13.1208 H       1  UNL1        0.0000
     32 H           3.2185    9.1328   14.0113 H       1  UNL1        0.0000
     33 H           4.8141    9.4052   14.6707 H       1  UNL1        0.0000
     34 H           6.5409   10.9801   11.7019 H       1  UNL1        0.0000
     35 H           6.7558   11.2795   13.4139 H       1  UNL1        0.0000
     36 H           6.2514   12.5854   12.3516 H       1  UNL1        0.0000
     37 H           3.9466   10.8357   16.7470 H       1  UNL1        0.0000
     38 H           2.3011   10.2391   16.7111 H       1  UNL1        0.0000
     39 H           2.7266   11.5645   17.7748 H       1  UNL1        0.0000
     40 H          -0.2230   12.7608   16.6532 H       1  UNL1        0.0000
     41 H          -2.5240   12.1127   16.0619 H       1  UNL1        0.0000
     42 H          -2.9521   10.8512   13.9839 H       1  UNL1        0.0000
     43 H          -1.0628   10.2261   12.5229 H       1  UNL1        0.0000
     44 H           1.2367   10.8764   13.1421 H       1  UNL1        0.0000
@<TRIPOS>BOND
     1    28     9    1
     2    29     9    1
     3     9    30    1
     4     9     2    1
     5    34    11    1
     6    36    11    1
     7    43    17    1
     8    11     2    1
     9    11    35    1
    10     2    10    1
    11     2     5    1
    12    31    10    1
    13    44    18    1
    14    17    18   ar
    15    17    16   ar
    16    10    32    1
    17    10    33    1
    18    18    13   ar
    19     5     3    1
    20    42    16    1
    21    16    15   ar
    22    13     3    1
    23    13    14   ar
    24     3     4    1
    25     3    12    1
    26    15    14   ar
    27    15    41    1
    28    14    40    1
    29     4     1    1
    30    24     7    1
    31    23     7    1
    32    38    12    1
    33    37    12    1
    34     7     1    1
    35     7    22    1
    36    12    39    1
    37    27     8    1
    38     1     8    1
    39     1     6    1
    40     8    26    1
    41     8    25    1
    42    20     6    1
    43     6    21    1
    44     6    19    1
