@<TRIPOS>MOLECULE
4,5
 51 52 0 0 0
SMALL
GASTEIGER

@<TRIPOS>ATOM
      1 SI          0.1764    2.8086    2.5017 Si      1  UNL1        0.0000
      2 SI          6.4759    3.9853    1.9085 Si      1  UNL1        0.0000
      3 SI          3.5617    2.6661    3.0212 Si      1  UNL1        0.0000
      4 C           4.6367    3.7912    1.9563 C.3     1  UNL1        0.0000
      5 C           1.9549    3.2109    2.2019 C.3     1  UNL1        0.0000
      6 C           7.4415    2.5839    2.7840 C.3     1  UNL1        0.0000
      7 C           7.0670    5.6439    2.6916 C.3     1  UNL1        0.0000
      8 C           7.0733    4.0189    0.0786 C.3     1  UNL1        0.0000
      9 C          -0.2390    0.9456    2.6965 C.3     1  UNL1        0.0000
     10 C          -0.5450    3.6479    4.0767 C.3     1  UNL1        0.0000
     11 C          -0.8304    3.4776    1.0055 C.3     1  UNL1        0.0000
     12 C           3.6778    2.9267    4.9051 C.ar    1  UNL1        0.0000
     13 C           2.7472    2.3325    5.7476 C.ar    1  UNL1        0.0000
     14 C           2.8277    2.4768    7.1210 C.ar    1  UNL1        0.0000
     15 C           3.8557    3.2184    7.6794 C.ar    1  UNL1        0.0000
     16 C           4.7988    3.8083    6.8552 C.ar    1  UNL1        0.0000
     17 C           4.7046    3.6610    5.4821 C.ar    1  UNL1        0.0000
     18 C           3.8514    0.7877    2.8747 C.ar    1  UNL1        0.0000
     19 C           4.8168    0.1520    3.6445 C.ar    1  UNL1        0.0000
     20 C           5.0227   -1.2130    3.5518 C.ar    1  UNL1        0.0000
     21 C           4.2547   -1.9730    2.6850 C.ar    1  UNL1        0.0000
     22 C           3.2783   -1.3584    1.9192 C.ar    1  UNL1        0.0000
     23 C           3.0852    0.0084    2.0179 C.ar    1  UNL1        0.0000
     24 H           8.5122    2.6690    2.6205 H       1  UNL1        0.0000
     25 H           7.1253    1.6115    2.4199 H       1  UNL1        0.0000
     26 H           7.2705    2.6010    3.8551 H       1  UNL1        0.0000
     27 H           8.1477    5.6614    2.7996 H       1  UNL1        0.0000
     28 H           6.6388    5.8003    3.6773 H       1  UNL1        0.0000
     29 H           6.7874    6.4910    2.0730 H       1  UNL1        0.0000
     30 H           7.5184    3.0729   -0.2155 H       1  UNL1        0.0000
     31 H           7.8175    4.7917   -0.0849 H       1  UNL1        0.0000
     32 H           6.2365    4.2186   -0.5855 H       1  UNL1        0.0000
     33 H           0.4360    0.4712    3.4015 H       1  UNL1        0.0000
     34 H          -0.1559    0.4086    1.7563 H       1  UNL1        0.0000
     35 H          -1.2521    0.8051    3.0627 H       1  UNL1        0.0000
     36 H           0.0502    3.4116    4.9532 H       1  UNL1        0.0000
     37 H          -1.5594    3.3098    4.2698 H       1  UNL1        0.0000
     38 H          -0.5757    4.7291    3.9811 H       1  UNL1        0.0000
     39 H          -1.8096    3.8363    1.3080 H       1  UNL1        0.0000
     40 H          -0.9868    2.7100    0.2540 H       1  UNL1        0.0000
     41 H          -0.3078    4.3030    0.5279 H       1  UNL1        0.0000
     42 H           1.9507    1.7443    5.3144 H       1  UNL1        0.0000
     43 H           2.0931    2.0074    7.7609 H       1  UNL1        0.0000
     44 H           3.9249    3.3304    8.7523 H       1  UNL1        0.0000
     45 H           5.6093    4.3806    7.2862 H       1  UNL1        0.0000
     46 H           5.4437    4.1150    4.8377 H       1  UNL1        0.0000
     47 H           5.4085    0.7369    4.3335 H       1  UNL1        0.0000
     48 H           5.7798   -1.6896    4.1591 H       1  UNL1        0.0000
     49 H           4.4111   -3.0402    2.6132 H       1  UNL1        0.0000
     50 H           2.6664   -1.9477    1.2496 H       1  UNL1        0.0000
     51 H           2.3143    0.4938    1.4370 H       1  UNL1        0.0000
@<TRIPOS>BOND
     1    32     8    1
     2    30     8    1
     3    31     8    1
     4     8     2    1
     5    40    11    1
     6    41    11    1
     7    11    39    1
     8    11     1    1
     9    50    22    1
    10    51    23    1
    11    34     9    1
    12     2     4    1
    13     2     7    1
    14     2     6    1
    15    22    23   ar
    16    22    21   ar
    17     4     3    1
    18    23    18   ar
    19    29     7    1
    20     5     1    1
    21     5     3    1
    22    25     6    1
    23     1     9    1
    24     1    10    1
    25    49    21    1
    26    24     6    1
    27    21    20   ar
    28     7    27    1
    29     7    28    1
    30     9    35    1
    31     9    33    1
    32     6    26    1
    33    18     3    1
    34    18    19   ar
    35     3    12    1
    36    20    19   ar
    37    20    48    1
    38    19    47    1
    39    38    10    1
    40    10    37    1
    41    10    36    1
    42    46    17    1
    43    12    17   ar
    44    12    13   ar
    45    42    13    1
    46    17    16   ar
    47    13    14   ar
    48    16    45    1
    49    16    15   ar
    50    14    15   ar
    51    14    43    1
    52    15    44    1
