@<TRIPOS>MOLECULE
1,3
 19 18 0 0 0
SMALL
GASTEIGER

@<TRIPOS>ATOM
      1 C           8.3229    6.0295    7.5805 C.2     1  UNL1        0.0000
      2 O           9.4053    5.8548    7.1385 O.2     1  UNL1        0.0000
      3 C           7.0616    6.4501    6.7680 C.3     1  UNL1        0.0000
      4 C           6.8368    6.7994    5.5975 C.3     1  UNL1        0.0000
      5 C           6.4951    7.1317    4.3424 C.1     1  UNL1        0.0000
      6 C           6.1297    7.4290    3.2150 C.1     1  UNL1        0.0000
      7 SI          5.6453    7.9015    1.4920 Si      1  UNL1        0.0000
      8 C           7.0768    8.9040    0.7315 C.3     1  UNL1        0.0000
      9 C           5.3030    6.3279    0.4741 C.3     1  UNL1        0.0000
     10 C           4.0609    8.9597    1.5885 C.3     1  UNL1        0.0000
     11 H           6.8504    9.2071   -0.2870 H       1  UNL1        0.0000
     12 H           7.9924    8.3208    0.7057 H       1  UNL1        0.0000
     13 H           7.2781    9.8032    1.3060 H       1  UNL1        0.0000
     14 H           5.0863    6.5702   -0.5625 H       1  UNL1        0.0000
     15 H           4.4520    5.7821    0.8709 H       1  UNL1        0.0000
     16 H           6.1579    5.6584    0.4822 H       1  UNL1        0.0000
     17 H           3.8347    9.4150    0.6284 H       1  UNL1        0.0000
     18 H           4.1640    9.7605    2.3151 H       1  UNL1        0.0000
     19 H           3.2041    8.3563    1.8745 H       1  UNL1        0.0000
@<TRIPOS>BOND
     1    14     9    1
     2    11     8    1
     3     9    16    1
     4     9    15    1
     5     9     7    1
     6    17    10    1
     7    12     8    1
     8     8    13    1
     9     8     7    1
    10     7    10    1
    11     7     6    1
    12    10    19    1
    13    10    18    1
    14     6     5    3
    15     5     4    1
    16     4     3    1
    17     3     1    1
    18     2     1    2
