@<TRIPOS>MOLECULE
1,2
 24 25 0 0 0
SMALL
GASTEIGER

@<TRIPOS>ATOM
      1 C          -1.5427    7.3412    0.4295 C.2     1  UNL1       -0.0013
      2 C          -0.7577    6.7000    1.2007 C.2     1  UNL1       -0.0013
      3 C          -2.7176    7.4541   -0.3716 C.ar    1  UNL1       -0.0167
      4 C          -3.8614    6.7256   -0.0262 C.ar    1  UNL1       -0.0540
      5 H          -3.8401    6.0934    0.8503 H       1  UNL1        0.0624
      6 C          -5.0042    6.8204   -0.7945 C.ar    1  UNL1       -0.0612
      7 H          -5.8836    6.2563   -0.5181 H       1  UNL1        0.0618
      8 C          -5.0280    7.6314   -1.9187 C.ar    1  UNL1       -0.0617
      9 H          -5.9241    7.6997   -2.5175 H       1  UNL1        0.0618
     10 C          -3.8983    8.3530   -2.2714 C.ar    1  UNL1       -0.0612
     11 H          -3.9137    8.9836   -3.1487 H       1  UNL1        0.0618
     12 C          -2.7547    8.2728   -1.5036 C.ar    1  UNL1       -0.0540
     13 H          -1.8716    8.8359   -1.7744 H       1  UNL1        0.0624
     14 C          -0.3065    5.4796    1.7873 C.ar    1  UNL1       -0.0167
     15 C           0.8280    5.4373    2.6020 C.ar    1  UNL1       -0.0540
     16 H           1.3678    6.3560    2.7908 H       1  UNL1        0.0624
     17 C           1.2518    4.2431    3.1499 C.ar    1  UNL1       -0.0612
     18 H           2.1307    4.2204    3.7787 H       1  UNL1        0.0618
     19 C           0.5545    3.0728    2.8941 C.ar    1  UNL1       -0.0617
     20 H           0.8884    2.1387    3.3208 H       1  UNL1        0.0618
     21 C          -0.5723    3.1038    2.0859 C.ar    1  UNL1       -0.0612
     22 H          -1.1135    2.1912    1.8818 H       1  UNL1        0.0618
     23 C          -1.0061    4.2934    1.5365 C.ar    1  UNL1       -0.0540
     24 H          -1.8750    4.3198    0.8956 H       1  UNL1        0.0624
@<TRIPOS>BOND
     1    11    10    1
     2     9     8    1
     3    10     8   ar
     4    10    12   ar
     5     8     6   ar
     6    13    12    1
     7    12     3   ar
     8     6     7    1
     9     6     4   ar
    10     3     4   ar
    11     3     1    1
    12     4     5    1
    13     1     2    2
    14    24    23    1
    15     2    14    1
    16    23    14   ar
    17    23    21   ar
    18    14    15   ar
    19    22    21    1
    20    21    19   ar
    21    15    16    1
    22    15    17   ar
    23    19    17   ar
    24    19    20    1
    25    17    18    1
