@<TRIPOS>MOLECULE
2,9
 30 30 0 0 0
SMALL
GASTEIGER

@<TRIPOS>ATOM
      1 N           0.4127    0.1102    4.0334 N.3     1  UNL1       -0.2969
      2 C           0.7622    2.2374    6.1034 C.3     1  UNL1       -0.0485
      3 H           0.1161    3.1275    6.0630 H       1  UNL1        0.0269
      4 H           0.1130    1.3630    6.2046 H       1  UNL1        0.0269
      5 C           1.4804    2.0665    4.7650 C.3     1  UNL1       -0.0242
      6 H           1.9461    3.0003    4.4357 H       1  UNL1        0.0316
      7 C           2.5098    0.9347    4.9000 C.3     1  UNL1       -0.0242
      8 H           3.2243    0.9985    4.0647 H       1  UNL1        0.0316
      9 C           3.2425    0.9795    6.2485 C.3     1  UNL1       -0.0485
     10 H           3.3973   -0.0547    6.5890 H       1  UNL1        0.0269
     11 H           4.2486    1.3880    6.0819 H       1  UNL1        0.0269
     12 C           1.6469   -0.3215    4.6891 C.3     1  UNL1        0.0025
     13 H           2.1991   -1.0661    4.1043 H       1  UNL1        0.0429
     14 H           1.3885   -0.7742    5.6542 H       1  UNL1        0.0429
     15 C           0.5434    1.5151    3.6849 C.3     1  UNL1        0.0025
     16 H          -0.4352    2.0015    3.7113 H       1  UNL1        0.0429
     17 H           0.9839    1.6746    2.6856 H       1  UNL1        0.0429
     18 C          -0.1672   -0.7832    3.0382 C.3     1  UNL1        0.0135
     19 C          -1.5327   -0.2212    2.6205 C.3     1  UNL1       -0.0471
     20 H          -1.4214    0.6829    2.0282 H       1  UNL1        0.0247
     21 H          -2.0684   -0.9546    2.0229 H       1  UNL1        0.0247
     22 H          -2.1236    0.0077    3.5034 H       1  UNL1        0.0247
     23 C          -0.3989   -2.1502    3.6961 C.3     1  UNL1       -0.0471
     24 H          -0.9385   -2.8037    3.0150 H       1  UNL1        0.0247
     25 H          -0.9856   -2.0290    4.6024 H       1  UNL1        0.0247
     26 H           0.5406   -2.6302    3.9542 H       1  UNL1        0.0247
     27 C           0.6997   -0.9694    1.7772 C.3     1  UNL1       -0.0471
     28 H           1.6741   -1.3812    2.0290 H       1  UNL1        0.0247
     29 H           0.8477   -0.0209    1.2663 H       1  UNL1        0.0247
     30 H           0.2082   -1.6531    1.0901 H       1  UNL1        0.0247
@<TRIPOS>BOND
     1    30    27    1
     2    29    27    1
     3    27    28    1
     4    27    18    1
     5    21    19    1
     6    20    19    1
     7    19    18    1
     8    19    22    1
     9    17    15    1
    10    24    23    1
    11    18    23    1
    12    18     1    1
    13    15    16    1
    14    15     1    1
    15    15     5    1
    16    23    26    1
    17    23    25    1
    18     1    12    1
    19     8     7    1
    20    13    12    1
    21     6     5    1
    22    12     7    1
    23    12    14    1
    24     5     7    1
    25     5     2    1
    26     7     9    1
    27     3     2    1
    28    11     9    1
    29     2     4    1
    30     9    10    1
