@<TRIPOS>MOLECULE
4,5
 25 25 0 0 0
SMALL
GASTEIGER

@<TRIPOS>ATOM
      1 C          -0.8561    8.2839    8.3747 C.2     1  UNL1       -0.0477
      2 C          -1.8625    8.3422    9.3935 C.2     1  UNL1       -0.0477
      3 C          -2.5460    7.1384    9.4233 C.2     1  UNL1       -0.0584
      4 C          -1.9374    6.2380    8.4454 C.3     1  UNL1        0.0231
      5 C          -0.8938    7.0358    7.7775 C.2     1  UNL1       -0.0584
      6 C          -0.1557    6.5701    6.5616 C.3     1  UNL1       -0.0424
      7 C           0.0070    9.4480    8.0192 C.3     1  UNL1       -0.0395
      8 C          -2.1198    9.5481   10.2287 C.3     1  UNL1       -0.0395
      9 C          -3.7793    6.8230   10.2076 C.3     1  UNL1       -0.0424
     10 C          -2.7847    5.2792    7.6417 C.3     1  UNL1       -0.0510
     11 H          -0.7801    6.7072    5.6769 H       1  UNL1        0.0275
     12 H           0.1020    5.5105    6.6276 H       1  UNL1        0.0275
     13 H           0.7579    7.1406    6.4103 H       1  UNL1        0.0275
     14 H           0.7589    9.1828    7.2811 H       1  UNL1        0.0278
     15 H           0.5021    9.8563    8.9002 H       1  UNL1        0.0278
     16 H          -0.6102   10.2431    7.6004 H       1  UNL1        0.0278
     17 H          -1.1985    9.9059   10.6876 H       1  UNL1        0.0278
     18 H          -2.8446    9.3410   11.0104 H       1  UNL1        0.0278
     19 H          -2.5086   10.3557    9.6085 H       1  UNL1        0.0278
     20 H          -4.6539    7.2279    9.6954 H       1  UNL1        0.0275
     21 H          -3.7459    7.2697   11.1997 H       1  UNL1        0.0275
     22 H          -3.9211    5.7483   10.3110 H       1  UNL1        0.0275
     23 H          -3.4661    5.8429    7.0022 H       1  UNL1        0.0242
     24 H          -3.3853    4.6387    8.2867 H       1  UNL1        0.0242
     25 H          -2.1656    4.6537    7.0004 H       1  UNL1        0.0242
@<TRIPOS>BOND
     1    11     6    1
     2    13     6    1
     3     6    12    1
     4     6     5    1
     5    25    10    1
     6    23    10    1
     7    14     7    1
     8    16     7    1
     9    10    24    1
    10    10     4    1
    11     5     1    2
    12     5     4    1
    13     7     1    1
    14     7    15    1
    15     1     2    1
    16     4     3    1
    17     2     3    2
    18     2     8    1
    19     3     9    1
    20    19     8    1
    21    20     9    1
    22     9    22    1
    23     9    21    1
    24     8    17    1
    25     8    18    1
