@<TRIPOS>MOLECULE
2,6
 65 69 0 0 0
SMALL
GASTEIGER

@<TRIPOS>ATOM
      1 SI          9.1220    8.5529    4.3723 Si      1  UNL1        0.0000
      2 C          11.2466    5.2489    7.2506 C.2     1  UNL1        0.0000
      3 C          11.0503    5.0375    5.9248 C.2     1  UNL1        0.0000
      4 C          10.6626    6.0820    4.9730 C.3     1  UNL1        0.0000
      5 C          10.1773    7.2915    5.3178 C.3     1  UNL1        0.0000
      6 C           9.8782    7.9231    6.6333 C.3     1  UNL1        0.0000
      7 C           8.9980    8.8968    6.2400 C.3     1  UNL1        0.0000
      8 C           8.1594    9.8553    7.0216 C.3     1  UNL1        0.0000
      9 C           6.6865    9.7257    6.6305 C.3     1  UNL1        0.0000
     10 C          10.8321    5.7743    3.5033 C.3     1  UNL1        0.0000
     11 C          12.3146    5.7648    3.1257 C.3     1  UNL1        0.0000
     12 C           7.6113    7.8567    3.4708 C.ar    1  UNL1        0.0000
     13 C           6.9800    6.7187    3.9654 C.ar    1  UNL1        0.0000
     14 C           5.8657    6.1946    3.3379 C.ar    1  UNL1        0.0000
     15 C           5.3616    6.8038    2.2002 C.ar    1  UNL1        0.0000
     16 C           5.9803    7.9346    1.6945 C.ar    1  UNL1        0.0000
     17 C           7.0962    8.4540    2.3261 C.ar    1  UNL1        0.0000
     18 C           9.9308    9.9012    3.3226 C.ar    1  UNL1        0.0000
     19 C           9.3160   11.1433    3.2007 C.ar    1  UNL1        0.0000
     20 C           9.8790   12.1471    2.4345 C.ar    1  UNL1        0.0000
     21 C          11.0760   11.9245    1.7746 C.ar    1  UNL1        0.0000
     22 C          11.7022   10.6949    1.8867 C.ar    1  UNL1        0.0000
     23 C          11.1323    9.6952    2.6543 C.ar    1  UNL1        0.0000
     24 C          11.5319    4.0813    8.1012 C.ar    1  UNL1        0.0000
     25 C          10.6084    3.0366    8.2396 C.ar    1  UNL1        0.0000
     26 C          10.8603    1.9655    9.0744 C.ar    1  UNL1        0.0000
     27 C          12.0472    1.8927    9.7847 C.ar    1  UNL1        0.0000
     28 C          12.9841    2.9037    9.6436 C.ar    1  UNL1        0.0000
     29 C          12.7296    3.9842    8.8210 C.ar    1  UNL1        0.0000
     30 C          11.1831    3.6563    5.3807 C.ar    1  UNL1        0.0000
     31 C          10.0717    2.9876    4.8745 C.ar    1  UNL1        0.0000
     32 C          10.1781    1.6843    4.4263 C.ar    1  UNL1        0.0000
     33 C          11.3971    1.0290    4.4756 C.ar    1  UNL1        0.0000
     34 C          12.5074    1.6832    4.9810 C.ar    1  UNL1        0.0000
     35 C          12.4000    2.9854    5.4333 C.ar    1  UNL1        0.0000
     36 H           8.2632    9.6802    8.0963 H       1  UNL1        0.0000
     37 H           8.4865   10.8794    6.8107 H       1  UNL1        0.0000
     38 H           6.5610    9.9089    5.5653 H       1  UNL1        0.0000
     39 H           6.3233    8.7222    6.8428 H       1  UNL1        0.0000
     40 H           6.0768   10.4389    7.1817 H       1  UNL1        0.0000
     41 H          10.3982    4.8074    3.2454 H       1  UNL1        0.0000
     42 H          10.3147    6.5390    2.9181 H       1  UNL1        0.0000
     43 H          12.7918    6.6945    3.4304 H       1  UNL1        0.0000
     44 H          12.8270    4.9419    3.6182 H       1  UNL1        0.0000
     45 H          12.4330    5.6475    2.0504 H       1  UNL1        0.0000
     46 H           7.3776    6.2433    4.8510 H       1  UNL1        0.0000
     47 H           5.3868    5.3098    3.7329 H       1  UNL1        0.0000
     48 H           4.4901    6.3971    1.7076 H       1  UNL1        0.0000
     49 H           5.5919    8.4110    0.8054 H       1  UNL1        0.0000
     50 H           7.5788    9.3344    1.9251 H       1  UNL1        0.0000
     51 H           8.3827   11.3242    3.7152 H       1  UNL1        0.0000
     52 H           9.3857   13.1052    2.3501 H       1  UNL1        0.0000
     53 H          11.5189   12.7070    1.1754 H       1  UNL1        0.0000
     54 H          12.6365   10.5162    1.3736 H       1  UNL1        0.0000
     55 H          11.6256    8.7383    2.7367 H       1  UNL1        0.0000
     56 H           9.6844    3.0699    7.6794 H       1  UNL1        0.0000
     57 H          10.1274    1.1764    9.1667 H       1  UNL1        0.0000
     58 H          12.2441    1.0530   10.4343 H       1  UNL1        0.0000
     59 H          13.9212    2.8468   10.1801 H       1  UNL1        0.0000
     60 H          13.4822    4.7550    8.7043 H       1  UNL1        0.0000
     61 H           9.1157    3.4942    4.8479 H       1  UNL1        0.0000
     62 H           9.3062    1.1754    4.0401 H       1  UNL1        0.0000
     63 H          11.4801    0.0106    4.1252 H       1  UNL1        0.0000
     64 H          13.4602    1.1754    5.0258 H       1  UNL1        0.0000
     65 H          13.2675    3.4905    5.8358 H       1  UNL1        0.0000
@<TRIPOS>BOND
     1    49    16    1
     2    53    21    1
     3    54    22    1
     4    16    15   ar
     5    16    17   ar
     6    48    15    1
     7    21    22   ar
     8    21    20   ar
     9    22    23   ar
    10    50    17    1
    11    45    11    1
    12    15    14   ar
    13    17    12   ar
    14    52    20    1
    15    20    19   ar
    16    23    55    1
    17    23    18   ar
    18    42    10    1
    19    11    43    1
    20    11    10    1
    21    11    44    1
    22    19    18   ar
    23    19    51    1
    24    41    10    1
    25    18     1    1
    26    14    47    1
    27    14    13   ar
    28    12    13   ar
    29    12     1    1
    30    10     4    1
    31    13    46    1
    32    62    32    1
    33    63    33    1
    34     1     5    1
    35     1     7    1
    36    32    33   ar
    37    32    31   ar
    38    33    34   ar
    39    61    31    1
    40    31    30   ar
    41     4     5    1
    42     4     3    1
    43    34    64    1
    44    34    35   ar
    45     5     6    1
    46    30    35   ar
    47    30     3    1
    48    35    65    1
    49    38     9    1
    50     3     2    2
    51     7     6    1
    52     7     8    1
    53     9    39    1
    54     9     8    1
    55     9    40    1
    56    37     8    1
    57     8    36    1
    58     2    24    1
    59    56    25    1
    60    24    25   ar
    61    24    29   ar
    62    25    26   ar
    63    60    29    1
    64    29    28   ar
    65    26    57    1
    66    26    27   ar
    67    28    27   ar
    68    28    59    1
    69    27    58    1
