@<TRIPOS>MOLECULE
5,6
 62 63 0 0 0
SMALL
GASTEIGER

@<TRIPOS>ATOM
      1 SI         11.3225    5.9191    4.9931 Si      1  UNL1        0.0000
      2 SI         10.9322    3.0449    1.4921 Si      1  UNL1        0.0000
      3 O          12.1092    4.6162    5.5569 O.2     1  UNL1        0.0000
      4 O          11.3491    2.6478    2.9994 O.2     1  UNL1        0.0000
      5 C          12.6096    3.4874    4.9530 C.2     1  UNL1        0.0000
      6 C          12.3250    2.7063    3.9550 C.2     1  UNL1        0.0000
      7 C          11.0707    6.9789    6.5913 C.3     1  UNL1        0.0000
      8 C          10.4095    6.1362    7.6844 C.3     1  UNL1        0.0000
      9 C          10.1534    8.1633    6.2938 C.3     1  UNL1        0.0000
     10 C          12.4015    7.5178    7.1190 C.3     1  UNL1        0.0000
     11 C          12.4262    6.8056    3.7264 C.ar    1  UNL1        0.0000
     12 C          13.5783    6.1703    3.2652 C.ar    1  UNL1        0.0000
     13 C          14.4364    6.7971    2.3801 C.ar    1  UNL1        0.0000
     14 C          14.1541    8.0712    1.9190 C.ar    1  UNL1        0.0000
     15 C          13.0064    8.7120    2.3512 C.ar    1  UNL1        0.0000
     16 C          12.1597    8.0854    3.2474 C.ar    1  UNL1        0.0000
     17 C           9.5827    5.5493    4.3270 C.ar    1  UNL1        0.0000
     18 C           8.8687    4.4669    4.8356 C.ar    1  UNL1        0.0000
     19 C           7.5457    4.2515    4.4958 C.ar    1  UNL1        0.0000
     20 C           6.9061    5.1165    3.6242 C.ar    1  UNL1        0.0000
     21 C           7.6055    6.1839    3.0859 C.ar    1  UNL1        0.0000
     22 C           8.9264    6.3961    3.4379 C.ar    1  UNL1        0.0000
     23 C           9.0242    2.9622    1.4902 C.3     1  UNL1        0.0000
     24 C           8.4503    1.7238    2.1694 C.3     1  UNL1        0.0000
     25 C          11.5076    4.8060    1.0221 C.3     1  UNL1        0.0000
     26 C          10.9990    5.3212   -0.3181 C.3     1  UNL1        0.0000
     27 C          11.5949    1.7644    0.2076 C.3     1  UNL1        0.0000
     28 C          10.7537    1.6448   -1.0609 C.3     1  UNL1        0.0000
     29 H           9.4360    5.7788    7.3547 H       1  UNL1        0.0000
     30 H          11.0250    5.2762    7.9369 H       1  UNL1        0.0000
     31 H          10.2676    6.7282    8.5890 H       1  UNL1        0.0000
     32 H           9.9283    8.7084    7.2110 H       1  UNL1        0.0000
     33 H          10.6274    8.8566    5.6048 H       1  UNL1        0.0000
     34 H           9.2145    7.8296    5.8575 H       1  UNL1        0.0000
     35 H          13.0591    6.7025    7.4091 H       1  UNL1        0.0000
     36 H          12.9058    8.1115    6.3587 H       1  UNL1        0.0000
     37 H          12.2372    8.1494    7.9925 H       1  UNL1        0.0000
     38 H          13.7903    5.1622    3.5974 H       1  UNL1        0.0000
     39 H          15.3322    6.2939    2.0417 H       1  UNL1        0.0000
     40 H          14.8222    8.5604    1.2246 H       1  UNL1        0.0000
     41 H          12.7731    9.7046    1.9919 H       1  UNL1        0.0000
     42 H          11.2732    8.6051    3.5786 H       1  UNL1        0.0000
     43 H           9.3632    3.7807    5.5066 H       1  UNL1        0.0000
     44 H           7.0101    3.4092    4.9105 H       1  UNL1        0.0000
     45 H           5.8710    4.9556    3.3586 H       1  UNL1        0.0000
     46 H           7.1172    6.8553    2.3933 H       1  UNL1        0.0000
     47 H           9.4571    7.2346    3.0117 H       1  UNL1        0.0000
     48 H           8.6254    3.8459    1.9854 H       1  UNL1        0.0000
     49 H           8.6654    3.0025    0.4622 H       1  UNL1        0.0000
     50 H           7.3613    1.7493    2.1700 H       1  UNL1        0.0000
     51 H           8.7704    0.8178    1.6585 H       1  UNL1        0.0000
     52 H           8.7920    1.6744    3.2000 H       1  UNL1        0.0000
     53 H          11.1667    5.4851    1.8042 H       1  UNL1        0.0000
     54 H          12.5970    4.8685    1.0299 H       1  UNL1        0.0000
     55 H          11.2980    6.3578   -0.4677 H       1  UNL1        0.0000
     56 H          11.4028    4.7328   -1.1379 H       1  UNL1        0.0000
     57 H           9.9143    5.2688   -0.3594 H       1  UNL1        0.0000
     58 H          12.6181    2.0104   -0.0875 H       1  UNL1        0.0000
     59 H          11.6343    0.7765    0.6704 H       1  UNL1        0.0000
     60 H          10.6672    2.6035   -1.5642 H       1  UNL1        0.0000
     61 H          11.2033    0.9352   -1.7549 H       1  UNL1        0.0000
     62 H           9.7522    1.2969   -0.8238 H       1  UNL1        0.0000
@<TRIPOS>BOND
     1    61    28    1
     2    60    28    1
     3    56    26    1
     4    28    62    1
     5    28    27    1
     6    55    26    1
     7    57    26    1
     8    26    25    1
     9    58    27    1
    10    27    59    1
    11    27     2    1
    12    49    23    1
    13    25    54    1
    14    25     2    1
    15    25    53    1
    16    40    14    1
    17    23     2    1
    18    23    48    1
    19    23    24    1
    20     2     4    1
    21    51    24    1
    22    14    15   ar
    23    14    13   ar
    24    41    15    1
    25    39    13    1
    26    24    50    1
    27    24    52    1
    28    15    16   ar
    29    13    12   ar
    30    46    21    1
    31     4     6    1
    32    47    22    1
    33    21    22   ar
    34    21    20   ar
    35    16    42    1
    36    16    11   ar
    37    12    38    1
    38    12    11   ar
    39    45    20    1
    40    22    17   ar
    41    20    19   ar
    42    11     1    1
    43     6     5    2
    44    17    18   ar
    45    17     1    1
    46    19    18   ar
    47    19    44    1
    48    18    43    1
    49     5     3    1
    50     1     3    1
    51     1     7    1
    52    33     9    1
    53    34     9    1
    54     9     7    1
    55     9    32    1
    56    36    10    1
    57     7    10    1
    58     7     8    1
    59    10    35    1
    60    10    37    1
    61    29     8    1
    62     8    30    1
    63     8    31    1
