@<TRIPOS>MOLECULE
10,11
 69 71 0 0 0
SMALL
GASTEIGER

@<TRIPOS>ATOM
      1 P          14.0223    5.1142    1.2532 P.3     1  UNL1        0.0000
      2 SI         18.0023    3.4801    3.0976 Si      1  UNL1        0.0000
      3 SI         17.2887    0.3459    3.4255 Si      1  UNL1        0.0000
      4 C          15.5716    2.8611    0.7182 C.2     1  UNL1        0.0000
      5 C          16.5156    2.0058    1.2047 C.2     1  UNL1        0.0000
      6 C          17.3419    1.1417    0.2824 C.3     1  UNL1        0.0000
      7 C          16.6999    0.9556   -1.0872 C.3     1  UNL1        0.0000
      8 C          16.3289    2.3220   -1.6446 C.3     1  UNL1        0.0000
      9 C          15.2579    2.9508   -0.7608 C.3     1  UNL1        0.0000
     10 C          14.8459    3.6809    1.6738 C.3     1  UNL1        0.0000
     11 C          16.8559    2.0231    2.6653 C.3     1  UNL1        0.0000
     12 C          13.7829    6.1095    2.7772 C.3     1  UNL1        0.0000
     13 C          12.2926    5.1410    0.5057 C.3     1  UNL1        0.0000
     14 C          14.8040    6.3797    0.1329 C.3     1  UNL1        0.0000
     15 C          19.0804    3.9576    1.5911 C.ar    1  UNL1        0.0000
     16 C          20.4564    3.7535    1.5540 C.ar    1  UNL1        0.0000
     17 C          21.2055    4.0868    0.4392 C.ar    1  UNL1        0.0000
     18 C          20.5907    4.6385   -0.6717 C.ar    1  UNL1        0.0000
     19 C          19.2232    4.8557   -0.6541 C.ar    1  UNL1        0.0000
     20 C          18.4842    4.5182    0.4649 C.ar    1  UNL1        0.0000
     21 C          19.2073    3.1751    4.5578 C.3     1  UNL1        0.0000
     22 C          17.1238    5.1281    3.5646 C.3     1  UNL1        0.0000
     23 C          19.0891   -0.2819    3.2567 C.ar    1  UNL1        0.0000
     24 C          19.4940   -1.4076    3.9682 C.ar    1  UNL1        0.0000
     25 C          20.7889   -1.8864    3.8876 C.ar    1  UNL1        0.0000
     26 C          21.7159   -1.2435    3.0844 C.ar    1  UNL1        0.0000
     27 C          21.3327   -0.1247    2.3653 C.ar    1  UNL1        0.0000
     28 C          20.0340    0.3447    2.4539 C.ar    1  UNL1        0.0000
     29 C          16.2154   -1.1015    2.7410 C.3     1  UNL1        0.0000
     30 C          17.0331    0.5017    5.3197 C.3     1  UNL1        0.0000
     31 H          17.5366    0.1684    0.7367 H       1  UNL1        0.0000
     32 H          18.3158    1.6289    0.1459 H       1  UNL1        0.0000
     33 H          15.8030    0.3385   -0.9979 H       1  UNL1        0.0000
     34 H          17.3951    0.4447   -1.7576 H       1  UNL1        0.0000
     35 H          15.9622    2.2379   -2.6715 H       1  UNL1        0.0000
     36 H          17.2196    2.9535   -1.6529 H       1  UNL1        0.0000
     37 H          15.1245    4.0029   -1.0310 H       1  UNL1        0.0000
     38 H          14.3008    2.4510   -0.9490 H       1  UNL1        0.0000
     39 H          14.5793    6.8495    2.8445 H       1  UNL1        0.0000
     40 H          13.8539    5.4457    3.6381 H       1  UNL1        0.0000
     41 H          12.8229    6.6220    2.7678 H       1  UNL1        0.0000
     42 H          11.6162    4.5881    1.1546 H       1  UNL1        0.0000
     43 H          12.3171    4.6503   -0.4655 H       1  UNL1        0.0000
     44 H          11.9283    6.1585    0.3814 H       1  UNL1        0.0000
     45 H          14.3538    7.3521    0.3223 H       1  UNL1        0.0000
     46 H          15.8718    6.4323    0.3374 H       1  UNL1        0.0000
     47 H          14.6544    6.1268   -0.9140 H       1  UNL1        0.0000
     48 H          20.9503    3.3253    2.4130 H       1  UNL1        0.0000
     49 H          22.2732    3.9165    0.4348 H       1  UNL1        0.0000
     50 H          21.1728    4.8988   -1.5444 H       1  UNL1        0.0000
     51 H          18.7357    5.2895   -1.5174 H       1  UNL1        0.0000
     52 H          17.4164    4.6760    0.4681 H       1  UNL1        0.0000
     53 H          19.7322    2.2314    4.4640 H       1  UNL1        0.0000
     54 H          18.6839    3.1737    5.5072 H       1  UNL1        0.0000
     55 H          19.9488    3.9660    4.6040 H       1  UNL1        0.0000
     56 H          16.6788    5.5877    2.6867 H       1  UNL1        0.0000
     57 H          17.8205    5.8418    3.9979 H       1  UNL1        0.0000
     58 H          16.3272    4.9516    4.2841 H       1  UNL1        0.0000
     59 H          18.7798   -1.9186    4.5978 H       1  UNL1        0.0000
     60 H          21.0791   -2.7616    4.4524 H       1  UNL1        0.0000
     61 H          22.7293   -1.6135    3.0199 H       1  UNL1        0.0000
     62 H          22.0473    0.3845    1.7336 H       1  UNL1        0.0000
     63 H          19.7475    1.2200    1.8928 H       1  UNL1        0.0000
     64 H          16.8321   -1.9443    2.4408 H       1  UNL1        0.0000
     65 H          15.6381   -0.7909    1.8752 H       1  UNL1        0.0000
     66 H          15.5054   -1.4615    3.4799 H       1  UNL1        0.0000
     67 H          16.1075    1.0344    5.5354 H       1  UNL1        0.0000
     68 H          17.8523    1.0399    5.7826 H       1  UNL1        0.0000
     69 H          16.9835   -0.4698    5.7989 H       1  UNL1        0.0000
@<TRIPOS>BOND
     1    35     8    1
     2    34     7    1
     3    36     8    1
     4     8     7    1
     5     8     9    1
     6    50    18    1
     7    51    19    1
     8     7    33    1
     9     7     6    1
    10    37     9    1
    11    38     9    1
    12    47    14    1
    13     9     4    1
    14    18    19   ar
    15    18    17   ar
    16    19    20   ar
    17    43    13    1
    18    14    45    1
    19    14    46    1
    20    14     1    1
    21    32     6    1
    22     6    31    1
    23     6     5    1
    24    44    13    1
    25    49    17    1
    26    17    16   ar
    27    20    52    1
    28    20    15   ar
    29    13    42    1
    30    13     1    1
    31     4     5    2
    32     4    10    1
    33     5    11    1
    34     1    10    1
    35     1    12    1
    36    16    15   ar
    37    16    48    1
    38    15     2    1
    39    62    27    1
    40    65    29    1
    41    63    28    1
    42    27    28   ar
    43    27    26   ar
    44    64    29    1
    45    28    23   ar
    46    11     2    1
    47    11     3    1
    48    56    22    1
    49    29     3    1
    50    29    66    1
    51    41    12    1
    52    12    39    1
    53    12    40    1
    54    61    26    1
    55    26    25   ar
    56     2    22    1
    57     2    21    1
    58    23     3    1
    59    23    24   ar
    60     3    30    1
    61    22    57    1
    62    22    58    1
    63    25    24   ar
    64    25    60    1
    65    24    59    1
    66    53    21    1
    67    21    55    1
    68    21    54    1
    69    30    67    1
    70    30    68    1
    71    30    69    1
