@<TRIPOS>MOLECULE
3,6
 38 37 0 0 0
SMALL
GASTEIGER

@<TRIPOS>ATOM
      1 SI          4.9909    3.5189    2.5706 Si      1  UNL1        0.0000
      2 SI          1.4354   -1.8607    3.4953 Si      1  UNL1        0.0000
      3 C           4.0826    1.8833    2.8394 C.2     1  UNL1        0.0000
      4 C           4.7297    0.7035    2.9601 C.2     1  UNL1        0.0000
      5 C           3.9263   -0.5129    3.1399 C.2     1  UNL1        0.0000
      6 C           2.5845   -0.3836    3.2301 C.2     1  UNL1        0.0000
      7 C           6.2305    0.5414    2.9289 C.3     1  UNL1        0.0000
      8 C           4.6675   -1.8266    3.2041 C.3     1  UNL1        0.0000
      9 C           3.8592    4.9767    2.0374 C.3     1  UNL1        0.0000
     10 H           4.3801    5.9175    2.1922 H       1  UNL1        0.0000
     11 H           3.6089    4.9209    0.9824 H       1  UNL1        0.0000
     12 H           2.9306    5.0258    2.5965 H       1  UNL1        0.0000
     13 C           5.8969    4.1044    4.1631 C.3     1  UNL1        0.0000
     14 H           6.6039    3.3623    4.5200 H       1  UNL1        0.0000
     15 H           6.4501    5.0199    3.9759 H       1  UNL1        0.0000
     16 H           5.2018    4.3010    4.9735 H       1  UNL1        0.0000
     17 C           6.2959    3.4369    1.1548 C.3     1  UNL1        0.0000
     18 H           7.3007    3.2891    1.5371 H       1  UNL1        0.0000
     19 H           6.0877    2.6219    0.4680 H       1  UNL1        0.0000
     20 H           6.3026    4.3572    0.5789 H       1  UNL1        0.0000
     21 C          -0.3629   -1.3900    3.9796 C.3     1  UNL1        0.0000
     22 H          -0.7612   -0.5639    3.3998 H       1  UNL1        0.0000
     23 H          -1.0177   -2.2422    3.8205 H       1  UNL1        0.0000
     24 H          -0.4357   -1.1239    5.0297 H       1  UNL1        0.0000
     25 C           1.9933   -3.0039    4.9430 C.3     1  UNL1        0.0000
     26 H           2.5408   -3.8709    4.5881 H       1  UNL1        0.0000
     27 H           2.6378   -2.4774    5.6407 H       1  UNL1        0.0000
     28 H           1.1367   -3.3701    5.5006 H       1  UNL1        0.0000
     29 C           1.2933   -2.9483    1.9153 C.3     1  UNL1        0.0000
     30 H           0.8433   -2.4043    1.0906 H       1  UNL1        0.0000
     31 H           2.2642   -3.2969    1.5778 H       1  UNL1        0.0000
     32 H           0.6791   -3.8236    2.1051 H       1  UNL1        0.0000
     33 H           6.5393    0.0287    2.0178 H       1  UNL1        0.0000
     34 H           6.5682   -0.0498    3.7784 H       1  UNL1        0.0000
     35 H           6.7280    1.5030    2.9616 H       1  UNL1        0.0000
     36 H           5.3568   -1.9165    2.3661 H       1  UNL1        0.0000
     37 H           3.9814   -2.6643    3.1744 H       1  UNL1        0.0000
     38 H           5.2467   -1.8930    4.1251 H       1  UNL1        0.0000
@<TRIPOS>BOND
     1    19    17    1
     2    20    17    1
     3    11     9    1
     4    30    29    1
     5    17    18    1
     6    17     1    1
     7    31    29    1
     8    29    32    1
     9    29     2    1
    10    33     7    1
    11     9    10    1
    12     9     1    1
    13     9    12    1
    14    36     8    1
    15     1     3    1
    16     1    13    1
    17     3     4    2
    18     7     4    1
    19     7    35    1
    20     7    34    1
    21     4     5    1
    22     5     8    1
    23     5     6    2
    24    37     8    1
    25     8    38    1
    26     6     2    1
    27    22    21    1
    28     2    21    1
    29     2    25    1
    30    23    21    1
    31    15    13    1
    32    21    24    1
    33    13    14    1
    34    13    16    1
    35    26    25    1
    36    25    28    1
    37    25    27    1
