@<TRIPOS>MOLECULE
2,27
 50 52 0 0 0
SMALL
GASTEIGER

@<TRIPOS>ATOM
      1 SI          8.2201   13.1579   12.4451 Si      1  UNL1        0.0000
      2 C           6.3474   13.2953   12.3895 C.3     1  UNL1        0.0000
      3 C           5.6364   14.4368   12.1752 C.ar    1  UNL1        0.0000
      4 C           6.1139   15.6973   11.5884 C.ar    1  UNL1        0.0000
      5 C           5.4629   16.9127   11.8659 C.ar    1  UNL1        0.0000
      6 C           8.5699   11.5056   13.3722 C.3     1  UNL1        0.0000
      7 H           8.3781   11.5915   14.4371 H       1  UNL1        0.0000
      8 H           9.6116   11.2183   13.2650 H       1  UNL1        0.0000
      9 H           7.9620   10.6889   12.9817 H       1  UNL1        0.0000
     10 C           9.2985   13.0136   10.8462 C.3     1  UNL1        0.0000
     11 H          10.1127   12.3101   10.9962 H       1  UNL1        0.0000
     12 H           9.7449   13.9688   10.5868 H       1  UNL1        0.0000
     13 H           8.7335   12.6711    9.9838 H       1  UNL1        0.0000
     14 C           8.9985   14.5665   13.4846 C.3     1  UNL1        0.0000
     15 H           8.9165   15.5187   12.9711 H       1  UNL1        0.0000
     16 H          10.0498   14.3832   13.6819 H       1  UNL1        0.0000
     17 H           8.4942   14.6689   14.4403 H       1  UNL1        0.0000
     18 C           7.1340   15.6907   10.6405 C.ar    1  UNL1        0.0000
     19 H           7.5767   14.7513   10.3613 H       1  UNL1        0.0000
     20 C           7.5543   16.8522   10.0237 C.ar    1  UNL1        0.0000
     21 H           8.3494   16.8182    9.2929 H       1  UNL1        0.0000
     22 C           6.9341   18.0537   10.3238 C.ar    1  UNL1        0.0000
     23 H           7.2483   18.9664    9.8388 H       1  UNL1        0.0000
     24 C           5.8878   18.0745   11.2252 C.ar    1  UNL1        0.0000
     25 H           5.3789   19.0079   11.4120 H       1  UNL1        0.0000
     26 SI          1.5957   13.1579   12.2348 Si      1  UNL1        0.0000
     27 C           3.4684   13.2954   12.2904 C.3     1  UNL1        0.0000
     28 C           4.1794   14.4368   12.5046 C.ar    1  UNL1        0.0000
     29 C           3.7019   15.6974   13.0914 C.ar    1  UNL1        0.0000
     30 C           4.3529   16.9128   12.8137 C.ar    1  UNL1        0.0000
     31 C           1.2460   11.5056   11.3077 C.3     1  UNL1        0.0000
     32 H           1.4377   11.5915   10.2428 H       1  UNL1        0.0000
     33 H           0.2043   11.2182   11.4149 H       1  UNL1        0.0000
     34 H           1.8539   10.6888   11.6983 H       1  UNL1        0.0000
     35 C           0.5173   13.0136   13.8338 C.3     1  UNL1        0.0000
     36 H          -0.2972   12.3105   13.6836 H       1  UNL1        0.0000
     37 H           0.0714   13.9688   14.0936 H       1  UNL1        0.0000
     38 H           1.0822   12.6705   14.6960 H       1  UNL1        0.0000
     39 C           0.8170   14.5664   11.1954 C.3     1  UNL1        0.0000
     40 H           0.8990   15.5186   11.7089 H       1  UNL1        0.0000
     41 H          -0.2343   14.3830   10.9982 H       1  UNL1        0.0000
     42 H           1.3213   14.6689   10.2396 H       1  UNL1        0.0000
     43 C           2.6819   15.6908   14.0392 C.ar    1  UNL1        0.0000
     44 H           2.2392   14.7515   14.3185 H       1  UNL1        0.0000
     45 C           2.2616   16.8524   14.6560 C.ar    1  UNL1        0.0000
     46 H           1.4665   16.8185   15.3869 H       1  UNL1        0.0000
     47 C           2.8818   18.0538   14.3558 C.ar    1  UNL1        0.0000
     48 H           2.5677   18.9666   14.8407 H       1  UNL1        0.0000
     49 C           3.9281   18.0746   13.4544 C.ar    1  UNL1        0.0000
     50 H           4.4370   19.0079   13.2675 H       1  UNL1        0.0000
@<TRIPOS>BOND
     1    21    20    1
     2    23    22    1
     3    13    10    1
     4    20    22   ar
     5    20    18   ar
     6    42    39    1
     7    32    31    1
     8    22    24   ar
     9    19    18    1
    10    12    10    1
    11    18     4   ar
    12    10    11    1
    13    10     1    1
    14    41    39    1
    15    39    40    1
    16    39    26    1
    17    24    25    1
    18    24     5   ar
    19    31    33    1
    20    31    34    1
    21    31    26    1
    22     4     5   ar
    23     4     3   ar
    24     5    30   ar
    25     3     2    1
    26     3    28   ar
    27    26    27    1
    28    26    35    1
    29    27    28    1
    30     2     1    1
    31     1     6    1
    32     1    14    1
    33    28    29   ar
    34    30    29   ar
    35    30    49   ar
    36    15    14    1
    37     9     6    1
    38    29    43   ar
    39     8     6    1
    40    50    49    1
    41     6     7    1
    42    49    47   ar
    43    14    16    1
    44    14    17    1
    45    36    35    1
    46    35    37    1
    47    35    38    1
    48    43    44    1
    49    43    45   ar
    50    47    45   ar
    51    47    48    1
    52    45    46    1
