@<TRIPOS>MOLECULE
1,4
 8 7 0 0 0
SMALL
GASTEIGER

@<TRIPOS>ATOM
      1 C          -0.7132    4.5437    4.2700 C.3     1  UNL1       -0.0316
      2 H          -1.0096    4.7250    5.3098 H       1  UNL1        0.0310
      3 H          -0.7131    5.4829    3.6951 H       1  UNL1        0.0310
      4 C          -1.5413    3.5214    3.6273 C.2     1  UNL1       -0.0908
      5 H          -1.9923    2.7696    4.2825 H       1  UNL1        0.0566
      6 C          -1.8078    3.4615    2.3144 C.2     1  UNL1       -0.1026
      7 H          -1.4240    4.2118    1.6361 H       1  UNL1        0.0532
      8 H          -2.4110    2.6802    1.8827 H       1  UNL1        0.0532
@<TRIPOS>BOND
     1     7     6    1
     2     8     6    1
     3     6     4    2
     4     4     1    1
     5     4     5    1
     6     3     1    1
     7     1     2    1
