@<TRIPOS>MOLECULE
31,33
 34 34 0 0 0
SMALL
GASTEIGER

@<TRIPOS>ATOM
      1 C           4.2323    1.8843   19.4932 C.2     1  UNL1        0.0000
      2 SI          4.1373    1.8803   17.6200 Si      1  UNL1        0.0000
      3 C           5.8918    1.9486   16.8802 C.3     1  UNL1        0.0000
      4 H           6.4177    2.8305   17.2317 H       1  UNL1        0.0000
      5 H           5.8652    1.9848   15.7956 H       1  UNL1        0.0000
      6 H           6.4808    1.0801   17.1629 H       1  UNL1        0.0000
      7 C           3.3131    0.2415   17.0739 C.3     1  UNL1        0.0000
      8 H           3.8898   -0.6221   17.3897 H       1  UNL1        0.0000
      9 H           3.2170    0.1964   15.9940 H       1  UNL1        0.0000
     10 H           2.3190    0.1431   17.4973 H       1  UNL1        0.0000
     11 C           3.0905    3.3403   16.9741 C.3     1  UNL1        0.0000
     12 H           3.0746    3.3641   15.8886 H       1  UNL1        0.0000
     13 H           3.4823    4.2899   17.3230 H       1  UNL1        0.0000
     14 H           2.0624    3.2646   17.3141 H       1  UNL1        0.0000
     15 C           3.2594    2.2068   20.3923 C.2     1  UNL1        0.0000
     16 H           2.2764    2.5678   20.1486 H       1  UNL1        0.0000
     17 C           3.7235    2.0007   21.7377 C.2     1  UNL1        0.0000
     18 SI          2.7883    2.4953   23.2905 Si      1  UNL1        0.0000
     19 C           1.1268    1.5572   23.3704 C.3     1  UNL1        0.0000
     20 H           0.5230    1.7487   22.4891 H       1  UNL1        0.0000
     21 H           0.5478    1.8600   24.2373 H       1  UNL1        0.0000
     22 H           1.2799    0.4844   23.4347 H       1  UNL1        0.0000
     23 C           3.8295    2.0918   24.8378 C.3     1  UNL1        0.0000
     24 H           3.2696    2.2849   25.7477 H       1  UNL1        0.0000
     25 H           4.7272    2.7014   24.8722 H       1  UNL1        0.0000
     26 H           4.1343    1.0501   24.8560 H       1  UNL1        0.0000
     27 C           2.4655    4.3762   23.2093 C.3     1  UNL1        0.0000
     28 H           1.9693    4.7400   24.1042 H       1  UNL1        0.0000
     29 H           1.8407    4.6317   22.3586 H       1  UNL1        0.0000
     30 H           3.3978    4.9236   23.1032 H       1  UNL1        0.0000
     31 C           5.0031    1.5240   21.6550 C.2     1  UNL1        0.0000
     32 H           5.6171    1.1831   22.4722 H       1  UNL1        0.0000
     33 C           5.4233    1.5122   20.2569 C.3     1  UNL1        0.0000
     34 H           6.0689    0.7185   19.8831 H       1  UNL1        0.0000
@<TRIPOS>BOND
     1     5     3    1
     2    12    11    1
     3     9     7    1
     4     3     6    1
     5     3     4    1
     6     3     2    1
     7    11    14    1
     8    11    13    1
     9    11     2    1
    10     7     8    1
    11     7    10    1
    12     7     2    1
    13     2     1    1
    14     1    33    1
    15     1    15    2
    16    34    33    1
    17    16    15    1
    18    33    31    1
    19    15    17    1
    20    31    17    2
    21    31    32    1
    22    17    18    1
    23    29    27    1
    24    20    19    1
    25    30    27    1
    26    27    18    1
    27    27    28    1
    28    18    19    1
    29    18    23    1
    30    19    22    1
    31    19    21    1
    32    23    26    1
    33    23    25    1
    34    23    24    1
