@<TRIPOS>MOLECULE
1,8
 17 17 0 0 0
SMALL
GASTEIGER

@<TRIPOS>ATOM
      1 C           8.7046    6.7410    8.5075 C.ar    1  UNL1       -0.0099
      2 C           9.2148    8.0155    8.7087 C.ar    1  UNL1       -0.0534
      3 C           9.0978    9.0024    7.7392 C.ar    1  UNL1       -0.0611
      4 C           8.4699    8.7312    6.5370 C.ar    1  UNL1       -0.0612
      5 C           7.9577    7.4687    6.3035 C.ar    1  UNL1       -0.0538
      6 C           8.0694    6.4817    7.2767 C.ar    1  UNL1       -0.0144
      7 C           7.5489    5.1259    7.1686 C.2     1  UNL1       -0.0427
      8 C           7.7681    4.3767    8.2540 C.2     1  UNL1       -0.0580
      9 C           6.8406    4.6572    5.9299 C.3     1  UNL1       -0.0391
     10 H           9.7155    8.2699    9.6323 H       1  UNL1        0.0624
     11 H           9.5007    9.9865    7.9334 H       1  UNL1        0.0618
     12 H           8.3802    9.5013    5.7836 H       1  UNL1        0.0618
     13 H           7.4626    7.2517    5.3677 H       1  UNL1        0.0624
     14 H           7.3863    3.3542    8.2560 H       1  UNL1        0.0620
     15 H           7.5019    4.7303    5.0668 H       1  UNL1        0.0278
     16 H           5.9622    5.2726    5.7375 H       1  UNL1        0.0278
     17 H           6.5236    3.6220    6.0387 H       1  UNL1        0.0278
@<TRIPOS>BOND
     1    15     9    1
     2    13     5    1
     3    16     9    1
     4    12     4    1
     5     9    17    1
     6     9     7    1
     7     5     4   ar
     8     5     6   ar
     9     4     3   ar
    10     7     6    1
    11     7     8    2
    12     6     1   ar
    13     3    11    1
    14     3     2   ar
    15     8    14    1
    16     1     2   ar
    17     2    10    1
