@<TRIPOS>MOLECULE
1,6
 24 24 0 0 0
SMALL
GASTEIGER

@<TRIPOS>ATOM
      1 C           3.6290    0.8979   10.0129 C.2     1  UNL1       -0.0551
      2 C           2.7100   -0.0542   10.6105 C.3     1  UNL1        0.0234
      3 C           3.4591   -0.9874   11.2859 C.2     1  UNL1       -0.0584
      4 C           4.8522   -0.6362   11.1773 C.2     1  UNL1       -0.0477
      5 C           4.9646    0.5162   10.4398 C.2     1  UNL1       -0.0474
      6 C           3.2817    2.0919    9.2755 C.3     1  UNL1       -0.0266
      7 C           1.2156    0.0614   10.5857 C.3     1  UNL1       -0.0510
      8 C           2.9783   -2.1832   12.0362 C.3     1  UNL1       -0.0424
      9 C           5.9552   -1.4333   11.7866 C.3     1  UNL1       -0.0395
     10 C           6.2239    1.2852   10.1723 C.3     1  UNL1       -0.0395
     11 H           3.9830    2.9192    9.3689 H       1  UNL1        0.0313
     12 H           2.2549    2.4275    9.4115 H       1  UNL1        0.0313
     13 H           0.7458   -0.9206   10.6199 H       1  UNL1        0.0242
     14 H           0.8671    0.5752    9.6907 H       1  UNL1        0.0242
     15 H           0.8684    0.6221   11.4568 H       1  UNL1        0.0242
     16 H           3.1644   -2.0638   13.1045 H       1  UNL1        0.0275
     17 H           3.5107   -3.0761   11.7076 H       1  UNL1        0.0275
     18 H           1.9119   -2.3386   11.8928 H       1  UNL1        0.0275
     19 H           5.7818   -1.5765   12.8533 H       1  UNL1        0.0278
     20 H           6.9120   -0.9360   11.6534 H       1  UNL1        0.0278
     21 H           6.0141   -2.4194   11.3226 H       1  UNL1        0.0278
     22 H           6.5733    1.7639   11.0897 H       1  UNL1        0.0278
     23 H           6.0737    2.0624    9.4228 H       1  UNL1        0.0278
     24 H           7.0194    0.6270    9.8205 H       1  UNL1        0.0278
@<TRIPOS>BOND
     1     6    11    1
     2     6    12    1
     3     6     1    1
     4    23    10    1
     5    14     7    1
     6    24    10    1
     7     1     5    2
     8     1     2    1
     9    10     5    1
    10    10    22    1
    11     5     4    1
    12     7     2    1
    13     7    13    1
    14     7    15    1
    15     2     3    1
    16     4     3    2
    17     4     9    1
    18     3     8    1
    19    21     9    1
    20    20     9    1
    21    17     8    1
    22     9    19    1
    23    18     8    1
    24     8    16    1
