@<TRIPOS>MOLECULE
2,5
 21 20 0 0 0
SMALL
GASTEIGER

@<TRIPOS>ATOM
      1 SI         -2.2628    2.7093    2.4096 Si      1  UNL1        0.0000
      2 C           0.5827    4.9441    2.7476 C.3     1  UNL1        0.0000
      3 H           0.2896    4.9132    3.7929 H       1  UNL1        0.0000
      4 H           0.4876    5.9305    2.3024 H       1  UNL1        0.0000
      5 C           0.3046    3.8171    1.9562 C.3     1  UNL1        0.0000
      6 H          -0.0030    4.0098    0.9333 H       1  UNL1        0.0000
      7 C          -0.3496    2.6050    2.5431 C.3     1  UNL1        0.0000
      8 H          -0.0560    2.4976    3.5875 H       1  UNL1        0.0000
      9 H          -0.0078    1.7103    2.0213 H       1  UNL1        0.0000
     10 C          -2.8841    4.2697    3.3128 C.3     1  UNL1        0.0000
     11 H          -2.4327    5.1690    2.9054 H       1  UNL1        0.0000
     12 H          -2.6431    4.2337    4.3707 H       1  UNL1        0.0000
     13 H          -3.9613    4.3737    3.2264 H       1  UNL1        0.0000
     14 C          -2.7500    2.8071    0.5624 C.3     1  UNL1        0.0000
     15 H          -2.4508    3.7524    0.1193 H       1  UNL1        0.0000
     16 H          -3.8247    2.7195    0.4368 H       1  UNL1        0.0000
     17 H          -2.2899    2.0104   -0.0150 H       1  UNL1        0.0000
     18 C          -3.0273    1.1453    3.1871 C.3     1  UNL1        0.0000
     19 H          -2.7146    0.2456    2.6667 H       1  UNL1        0.0000
     20 H          -4.1114    1.1821    3.1543 H       1  UNL1        0.0000
     21 H          -2.7345    1.0394    4.2267 H       1  UNL1        0.0000
@<TRIPOS>BOND
     1    17    14    1
     2    15    14    1
     3    16    14    1
     4    14     1    1
     5     6     5    1
     6     5     7    1
     7     5     2    1
     8     9     7    1
     9     4     2    1
    10     1     7    1
    11     1    18    1
    12     1    10    1
    13     7     8    1
    14    19    18    1
    15     2     3    1
    16    11    10    1
    17    20    18    1
    18    18    21    1
    19    13    10    1
    20    10    12    1
