@<TRIPOS>MOLECULE
3,16
 40 40 0 0 0
SMALL
GASTEIGER

@<TRIPOS>ATOM
      1 SI         -9.9369    3.3611    1.0768 Si      1  UNL1        0.0000
      2 SI         -5.6835    2.4459   -1.6008 Si      1  UNL1        0.0000
      3 C          -8.4647    0.7341   -4.9615 C.ar    1  UNL1        0.0000
      4 C          -9.2975    0.2213   -5.9543 C.ar    1  UNL1        0.0000
      5 H          -8.8671   -0.1405   -6.8911 H       1  UNL1        0.0000
      6 C         -10.6786    0.1574   -5.7970 C.ar    1  UNL1        0.0000
      7 H         -11.2973   -0.2460   -6.5874 H       1  UNL1        0.0000
      8 C         -11.2625    0.6122   -4.6272 C.ar    1  UNL1        0.0000
      9 H         -12.3353    0.5644   -4.5040 H       1  UNL1        0.0000
     10 C         -10.4718    1.1280   -3.6149 C.ar    1  UNL1        0.0000
     11 H         -10.9225    1.4843   -2.6981 H       1  UNL1        0.0000
     12 C          -9.0880    1.1891   -3.7731 C.ar    1  UNL1        0.0000
     13 C          -8.2038    1.7259   -2.7125 C.2     1  UNL1        0.0000
     14 C          -8.8112    2.2162   -1.5298 C.1     1  UNL1        0.0000
     15 C          -9.2853    2.6596   -0.5063 C.1     1  UNL1        0.0000
     16 C          -6.8530    1.7468   -2.8898 C.2     1  UNL1        0.0000
     17 C         -11.7813    3.7944    0.8599 C.3     1  UNL1        0.0000
     18 H         -11.9242    4.5031    0.0497 H       1  UNL1        0.0000
     19 H         -12.1962    4.2367    1.7614 H       1  UNL1        0.0000
     20 H         -12.3674    2.9101    0.6282 H       1  UNL1        0.0000
     21 C          -9.7226    2.0664    2.4619 C.3     1  UNL1        0.0000
     22 H         -10.2559    1.1500    2.2277 H       1  UNL1        0.0000
     23 H         -10.0998    2.4335    3.4123 H       1  UNL1        0.0000
     24 H          -8.6769    1.8088    2.6011 H       1  UNL1        0.0000
     25 C          -8.9318    4.9292    1.4922 C.3     1  UNL1        0.0000
     26 H          -7.8763    4.6993    1.6037 H       1  UNL1        0.0000
     27 H          -9.2693    5.3866    2.4180 H       1  UNL1        0.0000
     28 H          -9.0238    5.6728    0.7061 H       1  UNL1        0.0000
     29 C          -5.8095    1.7269    0.1704 C.3     1  UNL1        0.0000
     30 H          -6.7557    2.0026    0.6225 H       1  UNL1        0.0000
     31 H          -5.0104    2.0955    0.8063 H       1  UNL1        0.0000
     32 H          -5.7538    0.6425    0.1645 H       1  UNL1        0.0000
     33 C          -5.8249    4.3546   -1.4680 C.3     1  UNL1        0.0000
     34 H          -5.7652    4.8315   -2.4421 H       1  UNL1        0.0000
     35 H          -5.0411    4.7726   -0.8441 H       1  UNL1        0.0000
     36 H          -6.7798    4.6250   -1.0300 H       1  UNL1        0.0000
     37 C          -3.9201    2.0095   -2.2530 C.3     1  UNL1        0.0000
     38 H          -3.5785    1.0580   -1.8550 H       1  UNL1        0.0000
     39 H          -3.1949    2.7570   -1.9467 H       1  UNL1        0.0000
     40 H          -3.8945    1.9485   -3.3451 H       1  UNL1        0.0000
@<TRIPOS>BOND
     1     5     4    1
     2     7     6    1
     3     4     6   ar
     4     4     3   ar
     5     6     8   ar
     6     3    12   ar
     7     8     9    1
     8     8    10   ar
     9    12    10   ar
    10    12    13    1
    11    10    11    1
    12    40    37    1
    13    16    13    2
    14    16     2    1
    15    13    14    1
    16    34    33    1
    17    37    39    1
    18    37    38    1
    19    37     2    1
    20     2    33    1
    21     2    29    1
    22    14    15    3
    23    33    36    1
    24    33    35    1
    25    15     1    1
    26    18    17    1
    27    32    29    1
    28    29    30    1
    29    29    31    1
    30    20    17    1
    31    28    25    1
    32    17     1    1
    33    17    19    1
    34     1    25    1
    35     1    21    1
    36    25    26    1
    37    25    27    1
    38    22    21    1
    39    21    24    1
    40    21    23    1
