@<TRIPOS>MOLECULE
1,4
 14 14 0 0 0
SMALL
GASTEIGER

@<TRIPOS>ATOM
      1 C          11.2519    3.9874   12.7985 C.3     1  UNL1       -0.0237
      2 H          12.2596    3.5770   12.6468 H       1  UNL1        0.0316
      3 H          11.3100    5.0314   13.1299 H       1  UNL1        0.0316
      4 C          10.4822    3.1491   13.7228 C.ar    1  UNL1       -0.0470
      5 C           9.5331    3.6795   14.6127 C.ar    1  UNL1       -0.0586
      6 H           9.3962    4.7522   14.6603 H       1  UNL1        0.0620
      7 C           8.7884    2.8626   15.4409 C.ar    1  UNL1       -0.0615
      8 H           8.0714    3.3022   16.1192 H       1  UNL1        0.0618
      9 C           8.9528    1.4874   15.4108 C.ar    1  UNL1       -0.0617
     10 H           8.3564    0.8525   16.0480 H       1  UNL1        0.0618
     11 C           9.9053    0.9400   14.5637 C.ar    1  UNL1       -0.0615
     12 H          10.0666   -0.1295   14.5519 H       1  UNL1        0.0618
     13 C          10.6675    1.7509   13.7462 C.ar    1  UNL1       -0.0586
     14 H          11.4547    1.3106   13.1395 H       1  UNL1        0.0620
@<TRIPOS>BOND
     1     2     1    1
     2     1     3    1
     3     1     4    1
     4    14    13    1
     5     4    13   ar
     6     4     5   ar
     7    13    11   ar
     8    12    11    1
     9    11     9   ar
    10     5     6    1
    11     5     7   ar
    12     9     7   ar
    13     9    10    1
    14     7     8    1
