@<TRIPOS>MOLECULE
1,4
 14 14 0 0 0
SMALL
GASTEIGER

@<TRIPOS>ATOM
      1 C           9.8089    4.8612    9.1976 C.3     1  UNL1       -0.0237
      2 H           9.0651    5.6453    9.3766 H       1  UNL1        0.0316
      3 H          10.7003    5.2642    8.7048 H       1  UNL1        0.0316
      4 C           9.2508    3.7095    8.4903 C.ar    1  UNL1       -0.0470
      5 C           7.9139    3.2939    8.6871 C.ar    1  UNL1       -0.0586
      6 H           7.2553    3.9058    9.2963 H       1  UNL1        0.0620
      7 C           7.4136    2.1645    8.0675 C.ar    1  UNL1       -0.0615
      8 H           6.3786    1.8874    8.2198 H       1  UNL1        0.0618
      9 C           8.2171    1.3932    7.2405 C.ar    1  UNL1       -0.0617
     10 H           7.8223    0.5099    6.7615 H       1  UNL1        0.0618
     11 C           9.5289    1.7891    7.0187 C.ar    1  UNL1       -0.0615
     12 H          10.1576    1.2111    6.3551 H       1  UNL1        0.0618
     13 C          10.0326    2.9262    7.6151 C.ar    1  UNL1       -0.0586
     14 H          11.0444    3.2418    7.3987 H       1  UNL1        0.0620
@<TRIPOS>BOND
     1    12    11    1
     2    10     9    1
     3    11     9   ar
     4    11    13   ar
     5     9     7   ar
     6    14    13    1
     7    13     4   ar
     8     7     8    1
     9     7     5   ar
    10     4     5   ar
    11     4     1    1
    12     5     6    1
    13     3     1    1
    14     1     2    1
