@<TRIPOS>MOLECULE
1,13
 22 22 0 0 0
SMALL
GASTEIGER

@<TRIPOS>ATOM
      1 C          -1.5032    3.2419    4.6790 C.3     1  UNL1       -0.0056
      2 C          -0.4356    2.8259    5.5233 C.3     1  UNL1        0.0023
      3 C           0.2041    3.9716    6.0133 C.2     1  UNL1       -0.0771
      4 C          -2.7241    2.4091    4.3601 C.3     1  UNL1       -0.0574
      5 H          -3.4514    2.5101    5.1710 H       1  UNL1        0.0236
      6 H          -2.4686    1.3541    4.2759 H       1  UNL1        0.0236
      7 H          -3.2031    2.7283    3.4348 H       1  UNL1        0.0236
      8 C          -0.1230    1.4089    5.9039 C.3     1  UNL1       -0.0547
      9 H           0.8392    1.3582    6.4090 H       1  UNL1        0.0238
     10 H          -0.0951    0.7515    5.0334 H       1  UNL1        0.0238
     11 H          -0.8815    1.0233    6.5883 H       1  UNL1        0.0238
     12 H           1.0483    3.9710    6.6833 H       1  UNL1        0.0578
     13 C          -1.5026    4.7039    4.6796 C.3     1  UNL1        0.0050
     14 C          -0.4347    5.1183    5.5242 C.2     1  UNL1       -0.0687
     15 C          -2.7227    5.5380    4.3613 C.3     1  UNL1       -0.0545
     16 H          -3.4502    5.4368    5.1718 H       1  UNL1        0.0239
     17 H          -2.4663    6.5928    4.2781 H       1  UNL1        0.0239
     18 H          -3.2018    5.2201    3.4355 H       1  UNL1        0.0239
     19 C          -0.1208    6.5348    5.9057 C.3     1  UNL1       -0.0432
     20 H           0.8418    6.5843    6.4103 H       1  UNL1        0.0275
     21 H          -0.0930    7.1928    5.0357 H       1  UNL1        0.0275
     22 H          -0.8786    6.9204    6.5909 H       1  UNL1        0.0275
@<TRIPOS>BOND
     1     7     4    1
     2    18    15    1
     3     6     4    1
     4    17    15    1
     5     4     1    1
     6     4     5    1
     7    15    13    1
     8    15    16    1
     9     1    13    1
    10     1     2    1
    11    13    14    1
    12    10     8    1
    13    21    19    1
    14     2     8    1
    15     2     3    1
    16    14    19    1
    17    14     3    2
    18     8     9    1
    19     8    11    1
    20    19    20    1
    21    19    22    1
    22     3    12    1
