@<TRIPOS>MOLECULE
3,5
 34 33 0 0 0
SMALL
GASTEIGER

@<TRIPOS>ATOM
      1 SI          5.7188    3.2626    2.9669 Si      1  UNL1        0.0000
      2 SI          4.8001    3.4647   -2.9114 Si      1  UNL1        0.0000
      3 C           8.6867    3.4267    2.5527 C.2     1  UNL1        0.0000
      4 C           7.3355    3.4204    1.9920 C.2     1  UNL1        0.0000
      5 C           7.4379    3.4881    0.6411 C.2     1  UNL1        0.0000
      6 C           6.5289    3.4753   -0.3808 C.1     1  UNL1        0.0000
      7 C           5.8492    3.4669   -1.4003 C.1     1  UNL1        0.0000
      8 C           9.0056    3.4252    3.8421 C.2     1  UNL1        0.0000
      9 C           5.7348    1.6849    4.0574 C.3     1  UNL1        0.0000
     10 C           5.4383    4.7902    4.0913 C.3     1  UNL1        0.0000
     11 C           4.2340    3.1291    1.7754 C.3     1  UNL1        0.0000
     12 C           2.9794    3.7847   -2.4450 C.3     1  UNL1        0.0000
     13 C           4.9613    1.7681   -3.7738 C.3     1  UNL1        0.0000
     14 C           5.4198    4.8382   -4.0869 C.3     1  UNL1        0.0000
     15 H          10.0319    3.4102    4.1888 H       1  UNL1        0.0000
     16 H           8.2579    3.4338    4.6297 H       1  UNL1        0.0000
     17 H           5.7147    0.7823    3.4529 H       1  UNL1        0.0000
     18 H           4.8634    1.6602    4.7053 H       1  UNL1        0.0000
     19 H           6.6149    1.6342    4.6904 H       1  UNL1        0.0000
     20 H           6.2821    4.9765    4.7482 H       1  UNL1        0.0000
     21 H           4.5615    4.6474    4.7162 H       1  UNL1        0.0000
     22 H           5.2753    5.6898    3.5041 H       1  UNL1        0.0000
     23 H           3.3064    3.0255    2.3302 H       1  UNL1        0.0000
     24 H           4.1478    4.0073    1.1444 H       1  UNL1        0.0000
     25 H           4.3259    2.2711    1.1176 H       1  UNL1        0.0000
     26 H           2.8622    4.7531   -1.9678 H       1  UNL1        0.0000
     27 H           2.6173    3.0330   -1.7502 H       1  UNL1        0.0000
     28 H           2.3323    3.7670   -3.3176 H       1  UNL1        0.0000
     29 H           5.9784    1.5863   -4.1087 H       1  UNL1        0.0000
     30 H           4.3133    1.7026   -4.6433 H       1  UNL1        0.0000
     31 H           4.6890    0.9606   -3.1006 H       1  UNL1        0.0000
     32 H           5.3677    5.8133   -3.6112 H       1  UNL1        0.0000
     33 H           6.4522    4.6720   -4.3817 H       1  UNL1        0.0000
     34 H           4.8243    4.8843   -4.9943 H       1  UNL1        0.0000
@<TRIPOS>BOND
     1    34    14    1
     2    30    13    1
     3    33    14    1
     4    29    13    1
     5    14    32    1
     6    14     2    1
     7    13    31    1
     8    13     2    1
     9    28    12    1
    10     2    12    1
    11     2     7    1
    12    12    26    1
    13    12    27    1
    14     7     6    3
    15     6     5    1
    16     5     4    2
    17    25    11    1
    18    24    11    1
    19    11    23    1
    20    11     1    1
    21     4     3    1
    22     4     1    1
    23     3     8    2
    24     1     9    1
    25     1    10    1
    26    17     9    1
    27    22    10    1
    28     8    15    1
    29     8    16    1
    30     9    19    1
    31     9    18    1
    32    10    21    1
    33    10    20    1
