@<TRIPOS>MOLECULE
1,2
 8 7 0 0 0
SMALL
GASTEIGER

@<TRIPOS>ATOM
      1 C          -0.2197    1.9216    3.9642 C.3     1  UNL1       -0.0316
      2 C           0.4790    1.3452    5.0852 C.2     1  UNL1       -0.0908
      3 C           1.0079    2.0491    6.1177 C.2     1  UNL1       -0.1026
      4 H          -0.7960    1.2065    3.3798 H       1  UNL1        0.0310
      5 H          -0.7917    2.8186    4.2094 H       1  UNL1        0.0310
      6 H           0.6129    0.2592    5.0829 H       1  UNL1        0.0566
      7 H           1.5157    1.5617    6.9352 H       1  UNL1        0.0532
      8 H           0.8425    3.1187    6.2062 H       1  UNL1        0.0532
@<TRIPOS>BOND
     1     4     1    1
     2     1     5    1
     3     1     2    1
     4     6     2    1
     5     2     3    2
     6     3     8    1
     7     3     7    1
