@<TRIPOS>MOLECULE
1,4
 8 7 0 0 0
SMALL
GASTEIGER

@<TRIPOS>ATOM
      1 C           4.0724    3.0211   17.0460 C.3     1  UNL1       -0.0316
      2 H           4.4687    2.0012   17.1161 H       1  UNL1        0.0310
      3 H           3.9286    3.4756   18.0284 H       1  UNL1        0.0310
      4 C           2.9233    3.1191   16.1695 C.2     1  UNL1       -0.0908
      5 H           2.1511    3.8478   16.4310 H       1  UNL1        0.0566
      6 C           2.7596    2.4115   15.0243 C.2     1  UNL1       -0.1026
      7 H           1.8790    2.5236   14.4106 H       1  UNL1        0.0532
      8 H           3.4363    1.6004   14.7697 H       1  UNL1        0.0532
@<TRIPOS>BOND
     1     7     6    1
     2     8     6    1
     3     6     4    2
     4     4     5    1
     5     4     1    1
     6     1     2    1
     7     1     3    1
