@<TRIPOS>MOLECULE
1,4
 8 7 0 0 0
SMALL
GASTEIGER

@<TRIPOS>ATOM
      1 C           7.0966    4.6957   16.2600 C.3     1  UNL1       -0.0316
      2 H           7.0119    5.4542   17.0463 H       1  UNL1        0.0310
      3 H           7.7255    3.8590   16.5839 H       1  UNL1        0.0310
      4 C           7.5471    5.2384   14.9823 C.2     1  UNL1       -0.0908
      5 H           7.3227    6.2913   14.7820 H       1  UNL1        0.0566
      6 C           8.2299    4.5500   14.0507 C.2     1  UNL1       -0.1026
      7 H           8.5399    3.5293   14.2338 H       1  UNL1        0.0532
      8 H           8.5206    4.9884   13.1103 H       1  UNL1        0.0532
@<TRIPOS>BOND
     1     8     6    1
     2     6     7    1
     3     6     4    2
     4     5     4    1
     5     4     1    1
     6     1     3    1
     7     1     2    1
