@<TRIPOS>MOLECULE
1,6
 29 28 0 0 0
SMALL
GASTEIGER

@<TRIPOS>ATOM
      1 C          -1.0495    5.5751   13.3032 C.3     1  UNL1        0.0000
      2 C          -2.0862    5.6049   12.3538 C.2     1  UNL1        0.0000
      3 H          -1.8623    5.8916   11.3322 H       1  UNL1        0.0000
      4 C          -3.4193    5.3887   12.6527 C.2     1  UNL1        0.0000
      5 C          -3.8990    5.3085   13.9985 C.2     1  UNL1        0.0000
      6 C          -3.0293    5.0905   15.0266 C.2     1  UNL1        0.0000
      7 H          -3.4608    5.2184   16.0251 H       1  UNL1        0.0000
      8 C          -4.4020    5.4347   11.5289 C.3     1  UNL1        0.0000
      9 H          -3.8989    5.4016   10.5658 H       1  UNL1        0.0000
     10 H          -4.9969    6.3448   11.5753 H       1  UNL1        0.0000
     11 H          -5.0831    4.5912   11.5983 H       1  UNL1        0.0000
     12 O           0.0938    6.2595   13.0937 O.3     1  UNL1        0.0000
     13 C           0.1917    7.2088   12.0377 C.3     1  UNL1        0.0000
     14 H           1.1007    7.7791   12.2240 H       1  UNL1        0.0000
     15 H          -0.6688    7.8807   12.0418 H       1  UNL1        0.0000
     16 H           0.2694    6.7130   11.0661 H       1  UNL1        0.0000
     17 SI         -5.6882    5.8247   14.4513 Si      1  UNL1        0.0000
     18 C          -6.0442    5.3023   16.2551 C.3     1  UNL1        0.0000
     19 H          -5.8787    4.2407   16.4099 H       1  UNL1        0.0000
     20 H          -7.0802    5.5072   16.5055 H       1  UNL1        0.0000
     21 H          -5.4302    5.8443   16.9683 H       1  UNL1        0.0000
     22 C          -5.7424    7.7359   14.3683 C.3     1  UNL1        0.0000
     23 H          -5.0355    8.1825   15.0616 H       1  UNL1        0.0000
     24 H          -6.7302    8.1078   14.6220 H       1  UNL1        0.0000
     25 H          -5.5023    8.1056   13.3758 H       1  UNL1        0.0000
     26 C          -7.1005    5.1136   13.3825 C.3     1  UNL1        0.0000
     27 H          -6.9414    4.0723   13.1237 H       1  UNL1        0.0000
     28 H          -7.2360    5.6687   12.4609 H       1  UNL1        0.0000
     29 H          -8.0359    5.1727   13.9305 H       1  UNL1        0.0000
@<TRIPOS>BOND
     1     9     8    1
     2    16    13    1
     3     3     2    1
     4     8    10    1
     5     8    11    1
     6     8     4    1
     7    13    15    1
     8    13    14    1
     9    13    12    1
    10     2     4    2
    11     2     1    1
    12    28    26    1
    13     4     5    1
    14    12     1    1
    15    27    26    1
    16    25    22    1
    17    26    29    1
    18    26    17    1
    19     5    17    1
    20     5     6    2
    21    22    17    1
    22    22    24    1
    23    22    23    1
    24    17    18    1
    25     6     7    1
    26    18    19    1
    27    18    20    1
    28    18    21    1
