@<TRIPOS>MOLECULE
1,4
 14 14 0 0 0
SMALL
GASTEIGER

@<TRIPOS>ATOM
      1 C           4.9688    8.5457    2.8142 C.3     1  UNL1       -0.0237
      2 H           5.0728    7.6906    3.4913 H       1  UNL1        0.0316
      3 H           4.0011    8.5647    2.3022 H       1  UNL1        0.0316
      4 C           6.1188    8.8118    1.9778 C.ar    1  UNL1       -0.0470
      5 C           7.4232    8.4099    2.3647 C.ar    1  UNL1       -0.0586
      6 H           7.5408    7.7907    3.2492 H       1  UNL1        0.0620
      7 C           8.5293    8.7385    1.6083 C.ar    1  UNL1       -0.0615
      8 H           9.5090    8.4043    1.9209 H       1  UNL1        0.0618
      9 C           8.3992    9.4759    0.4388 C.ar    1  UNL1       -0.0617
     10 H           9.2678    9.7248   -0.1507 H       1  UNL1        0.0618
     11 C           7.1335    9.8765    0.0321 C.ar    1  UNL1       -0.0615
     12 H           7.0200   10.4336   -0.8879 H       1  UNL1        0.0618
     13 C           6.0164    9.5596    0.7775 C.ar    1  UNL1       -0.0586
     14 H           5.0343    9.8482    0.4163 H       1  UNL1        0.0620
@<TRIPOS>BOND
     1    12    11    1
     2    10     9    1
     3    11     9   ar
     4    11    13   ar
     5    14    13    1
     6     9     7   ar
     7    13     4   ar
     8     7     8    1
     9     7     5   ar
    10     4     5   ar
    11     4     1    1
    12     3     1    1
    13     5     6    1
    14     1     2    1
