@<TRIPOS>MOLECULE
3,4
 4 3 0 0 0
SMALL
GASTEIGER

@<TRIPOS>ATOM
      1 O           3.5011   13.1123   11.7223 O.2     1  UNL1       -0.2794
      2 O           4.3018   10.1452   11.0400 O.2     1  UNL1       -0.2794
      3 C           2.6882   12.2914   11.6021 C.2     1  UNL1        0.2794
      4 C           3.1859   10.4420   11.1716 C.2     1  UNL1        0.2794
@<TRIPOS>BOND
     1     2     4    2
     2     4     3    1
     3     3     1    2
