@<TRIPOS>MOLECULE
3,4
 4 3 0 0 0
SMALL
GASTEIGER

@<TRIPOS>ATOM
      1 O           5.8388    8.5220    4.4658 O.2     1  UNL1       -0.2794
      2 O           3.3507    9.5159    2.8271 O.2     1  UNL1       -0.2794
      3 C           3.7749    8.4465    2.6706 C.2     1  UNL1        0.2794
      4 C           5.3234    7.8317    3.6855 C.2     1  UNL1        0.2794
@<TRIPOS>BOND
     1     3     2    2
     2     3     4    1
     3     4     1    2
