@<TRIPOS>MOLECULE
2,3
 16 15 0 0 0
SMALL
GASTEIGER

@<TRIPOS>ATOM
      1 SI          2.7405    2.4638   -1.2089 Si      1  UNL1        0.0000
      2 C           0.5682    2.3061    0.8185 C.2     1  UNL1        0.0000
      3 C           1.6455    2.8263    0.2791 C.2     1  UNL1        0.0000
      4 C           1.9923    0.9549   -2.1226 C.3     1  UNL1        0.0000
      5 C           4.4869    2.0105   -0.5833 C.3     1  UNL1        0.0000
      6 C           2.7796    3.9532   -2.4016 C.3     1  UNL1        0.0000
      7 H          -0.0618    1.4769    0.5096 H       1  UNL1        0.0000
      8 H           0.9849    1.1596   -2.4714 H       1  UNL1        0.0000
      9 H           2.5917    0.6934   -2.9885 H       1  UNL1        0.0000
     10 H           1.9488    0.0822   -1.4786 H       1  UNL1        0.0000
     11 H           4.4486    1.2191    0.1600 H       1  UNL1        0.0000
     12 H           5.1253    1.6763   -1.3958 H       1  UNL1        0.0000
     13 H           4.9600    2.8689   -0.1186 H       1  UNL1        0.0000
     14 H           3.3463    3.7249   -3.2996 H       1  UNL1        0.0000
     15 H           1.7784    4.2462   -2.7050 H       1  UNL1        0.0000
     16 H           3.2416    4.8114   -1.9254 H       1  UNL1        0.0000
@<TRIPOS>BOND
     1    14     6    1
     2     9     4    1
     3    15     6    1
     4     8     4    1
     5     6    16    1
     6     6     1    1
     7     4    10    1
     8     4     1    1
     9    12     5    1
    10     1     5    1
    11     1     3    1
    12     5    13    1
    13     5    11    1
    14     3     2    2
    15     7     2    1
