@<TRIPOS>MOLECULE
2,3
 17 17 0 0 0
SMALL
GASTEIGER

@<TRIPOS>ATOM
      1 C          11.4961    0.4505    1.9851 C.3     1  UNL1       -0.0388
      2 C          10.1851    1.1403    2.1124 C.2     1  UNL1       -0.0387
      3 C           8.9331    0.8429    2.3036 C.2     1  UNL1       -0.0067
      4 C           8.0583   -0.2961    2.4330 C.ar    1  UNL1       -0.0170
      5 C           6.8300   -0.1902    3.0941 C.ar    1  UNL1       -0.0540
      6 C           5.9792   -1.2746    3.1765 C.ar    1  UNL1       -0.0612
      7 C           6.3307   -2.4842    2.5977 C.ar    1  UNL1       -0.0617
      8 C           7.5436   -2.6031    1.9375 C.ar    1  UNL1       -0.0612
      9 C           8.4018   -1.5239    1.8557 C.ar    1  UNL1       -0.0540
     10 H          12.3082    1.0607    2.3811 H       1  UNL1        0.0278
     11 H          11.4848   -0.5125    2.5004 H       1  UNL1        0.0278
     12 H          11.6966    0.2803    0.9246 H       1  UNL1        0.0278
     13 H           6.5509    0.7552    3.5419 H       1  UNL1        0.0624
     14 H           5.0324   -1.1783    3.6890 H       1  UNL1        0.0618
     15 H           5.6612   -3.3296    2.6585 H       1  UNL1        0.0618
     16 H           7.8192   -3.5444    1.4835 H       1  UNL1        0.0618
     17 H           9.3406   -1.6119    1.3289 H       1  UNL1        0.0624
@<TRIPOS>BOND
     1    12     1    1
     2    17     9    1
     3    16     8    1
     4     9     8   ar
     5     9     4   ar
     6     8     7   ar
     7     1     2    1
     8     1    10    1
     9     1    11    1
    10     2     3    2
    11     3     4    1
    12     4     5   ar
    13     7    15    1
    14     7     6   ar
    15     5     6   ar
    16     5    13    1
    17     6    14    1
