@<TRIPOS>MOLECULE
4,15
 28 27 0 0 0
SMALL
GASTEIGER

@<TRIPOS>ATOM
      1 SI         -0.5475    3.6439    2.0810 Si      1  UNL1        0.0000
      2 C           0.3577    5.0155    3.0536 C.3     1  UNL1        0.0000
      3 C           0.7060    2.6825    1.0052 C.3     1  UNL1        0.0000
      4 C          -1.4276    2.5765    3.3289 C.2     1  UNL1        0.0000
      5 C          -1.8674    4.4570    0.9602 C.3     1  UNL1        0.0000
      6 H          -0.3454    5.6085    3.6299 H       1  UNL1        0.0000
      7 H           1.0821    4.5990    3.7465 H       1  UNL1        0.0000
      8 H           0.8882    5.6875    2.3853 H       1  UNL1        0.0000
      9 H           1.7299    2.9314    1.2704 H       1  UNL1        0.0000
     10 H           0.5930    1.6096    1.1252 H       1  UNL1        0.0000
     11 H           0.5798    2.9064   -0.0509 H       1  UNL1        0.0000
     12 H          -2.6485    4.9193    1.5557 H       1  UNL1        0.0000
     13 H          -1.4259    5.2303    0.3377 H       1  UNL1        0.0000
     14 H          -2.3416    3.7372    0.2993 H       1  UNL1        0.0000
     15 C          -2.1950    2.5765    4.3314 C.2     1  UNL1        0.0000
     16 SI         -3.0751    3.6440    5.5792 Si      1  UNL1        0.0000
     17 C          -3.9802    5.0156    4.6064 C.3     1  UNL1        0.0000
     18 H          -3.2770    5.6087    4.0305 H       1  UNL1        0.0000
     19 H          -4.7044    4.5991    3.9134 H       1  UNL1        0.0000
     20 H          -4.5109    5.6876    5.2747 H       1  UNL1        0.0000
     21 C          -4.3288    2.6826    6.6548 C.3     1  UNL1        0.0000
     22 H          -5.3525    2.9310    6.3890 H       1  UNL1        0.0000
     23 H          -4.2153    1.6098    6.5354 H       1  UNL1        0.0000
     24 H          -4.2033    2.9071    7.7107 H       1  UNL1        0.0000
     25 C          -1.7552    4.4568    6.7001 C.3     1  UNL1        0.0000
     26 H          -0.9740    4.9188    6.1046 H       1  UNL1        0.0000
     27 H          -2.1966    5.2302    7.3226 H       1  UNL1        0.0000
     28 H          -1.2812    3.7370    7.3611 H       1  UNL1        0.0000
@<TRIPOS>BOND
     1    11     3    1
     2    14     5    1
     3    13     5    1
     4     5    12    1
     5     5     1    1
     6     3    10    1
     7     3     9    1
     8     3     1    1
     9     1     2    1
    10     1     4    1
    11     8     2    1
    12     2     6    1
    13     2     7    1
    14     4    15    2
    15    19    17    1
    16    18    17    1
    17    15    16    1
    18    17    20    1
    19    17    16    1
    20    16    21    1
    21    16    25    1
    22    26    25    1
    23    22    21    1
    24    23    21    1
    25    21    24    1
    26    25    27    1
    27    25    28    1
