@<TRIPOS>MOLECULE
3,4
 30 29 0 0 0
SMALL
GASTEIGER

@<TRIPOS>ATOM
      1 SI          3.6543   11.3850   -1.4760 Si      1  UNL1        0.0000
      2 SI          6.0216    8.6968    4.2583 Si      1  UNL1        0.0000
      3 C           4.3892    8.6473    3.3655 C.3     1  UNL1        0.0000
      4 C           3.8290    9.1225    2.3183 C.3     1  UNL1        0.0000
      5 C           3.8335    9.8279    1.1555 C.1     1  UNL1        0.0000
      6 C           3.7844   10.4392    0.1006 C.1     1  UNL1        0.0000
      7 C           2.8583   13.0781   -1.1008 C.3     1  UNL1        0.0000
      8 C           2.5584   10.4099   -2.6972 C.3     1  UNL1        0.0000
      9 C           5.3916   11.6286   -2.2249 C.3     1  UNL1        0.0000
     10 C           6.4942   10.5356    4.4863 C.3     1  UNL1        0.0000
     11 C           7.3655    7.8480    3.1992 C.3     1  UNL1        0.0000
     12 C           5.8929    7.8333    5.9587 C.3     1  UNL1        0.0000
     13 H           1.8571   12.9588   -0.6976 H       1  UNL1        0.0000
     14 H           3.4421   13.6323   -0.3719 H       1  UNL1        0.0000
     15 H           2.7828   13.6895   -1.9956 H       1  UNL1        0.0000
     16 H           1.5778   10.2135   -2.2740 H       1  UNL1        0.0000
     17 H           2.4132   10.9565   -3.6249 H       1  UNL1        0.0000
     18 H           3.0059    9.4524   -2.9472 H       1  UNL1        0.0000
     19 H           5.8670   10.6743   -2.4316 H       1  UNL1        0.0000
     20 H           5.3492   12.1836   -3.1580 H       1  UNL1        0.0000
     21 H           6.0386   12.1756   -1.5457 H       1  UNL1        0.0000
     22 H           5.7772   11.0652    5.1073 H       1  UNL1        0.0000
     23 H           7.4696   10.6352    4.9538 H       1  UNL1        0.0000
     24 H           6.5329   11.0431    3.5274 H       1  UNL1        0.0000
     25 H           7.2532    6.7682    3.1958 H       1  UNL1        0.0000
     26 H           7.3268    8.1910    2.1696 H       1  UNL1        0.0000
     27 H           8.3566    8.0719    3.5833 H       1  UNL1        0.0000
     28 H           4.9005    7.4215    6.1163 H       1  UNL1        0.0000
     29 H           6.6018    7.0153    6.0442 H       1  UNL1        0.0000
     30 H           6.0915    8.5212    6.7755 H       1  UNL1        0.0000
@<TRIPOS>BOND
     1    17     8    1
     2    20     9    1
     3    18     8    1
     4     8    16    1
     5     8     1    1
     6    19     9    1
     7     9    21    1
     8     9     1    1
     9    15     7    1
    10     1     7    1
    11     1     6    1
    12     7    13    1
    13     7    14    1
    14     6     5    3
    15     5     4    1
    16    26    11    1
    17     4     3    1
    18    25    11    1
    19    11    27    1
    20    11     2    1
    21     3     2    1
    22    24    10    1
    23     2    10    1
    24     2    12    1
    25    10    23    1
    26    10    22    1
    27    12    29    1
    28    12    28    1
    29    12    30    1
