@<TRIPOS>MOLECULE
1,2
 14 14 0 0 0
SMALL
GASTEIGER

@<TRIPOS>ATOM
      1 C           8.4920   10.2430   12.3189 C.2     1  UNL1       -0.0529
      2 C           7.3301    9.6487   12.3279 C.2     1  UNL1       -0.0102
      3 C           6.5107    8.8484   11.4496 C.ar    1  UNL1       -0.0173
      4 C           7.0582    7.7646   10.7550 C.ar    1  UNL1       -0.0540
      5 C           6.2615    6.9777    9.9462 C.ar    1  UNL1       -0.0612
      6 C           4.9121    7.2598    9.8037 C.ar    1  UNL1       -0.0617
      7 C           4.3599    8.3358   10.4807 C.ar    1  UNL1       -0.0612
      8 C           5.1468    9.1179   11.3033 C.ar    1  UNL1       -0.0540
      9 H           9.2512   10.3625   11.5503 H       1  UNL1        0.0624
     10 H           8.1095    7.5451   10.8704 H       1  UNL1        0.0624
     11 H           6.6949    6.1395    9.4199 H       1  UNL1        0.0618
     12 H           4.2932    6.6437    9.1686 H       1  UNL1        0.0618
     13 H           3.3084    8.5592   10.3708 H       1  UNL1        0.0618
     14 H           4.7155    9.9544   11.8383 H       1  UNL1        0.0624
@<TRIPOS>BOND
     1    12     6    1
     2    11     5    1
     3     6     5   ar
     4     6     7   ar
     5     5     4   ar
     6    13     7    1
     7     7     8   ar
     8     4    10    1
     9     4     3   ar
    10     8     3   ar
    11     8    14    1
    12     3     2    1
    13     9     1    1
    14     1     2    2
