@<TRIPOS>MOLECULE
1,26
 50 51 0 0 0
SMALL
GASTEIGER

@<TRIPOS>ATOM
      1 C          -2.0390   10.8407    3.0750 C.3     1  UNL1        0.0000
      2 C          -2.2649   11.8166    4.1575 C.ar    1  UNL1        0.0000
      3 C          -3.4233   11.8526    4.9436 C.ar    1  UNL1        0.0000
      4 C          -3.6091   12.8070    5.9262 C.ar    1  UNL1        0.0000
      5 C          -2.6494   13.7787    6.1531 C.ar    1  UNL1        0.0000
      6 C          -1.4937   13.7731    5.3889 C.ar    1  UNL1        0.0000
      7 C          -1.2905   12.8100    4.4144 C.ar    1  UNL1        0.0000
      8 SI         -3.5294   10.3701    2.0039 Si      1  UNL1        0.0000
      9 C          -3.0530   10.7274    0.1752 C.3     1  UNL1        0.0000
     10 C          -5.1480   11.3692    2.2583 C.3     1  UNL1        0.0000
     11 C          -4.0278    8.5136    2.1435 C.3     1  UNL1        0.0000
     12 H          -1.2955   11.2793    2.3853 H       1  UNL1        0.0000
     13 H          -4.2034   11.1278    4.7696 H       1  UNL1        0.0000
     14 H          -4.5179   12.7993    6.5112 H       1  UNL1        0.0000
     15 H          -2.7989   14.5326    6.9110 H       1  UNL1        0.0000
     16 H          -0.7313   14.5225    5.5504 H       1  UNL1        0.0000
     17 H          -2.0162   10.4951   -0.0456 H       1  UNL1        0.0000
     18 H          -3.6713   10.1608   -0.5132 H       1  UNL1        0.0000
     19 H          -3.1976   11.7788   -0.0516 H       1  UNL1        0.0000
     20 H          -5.7845   10.9465    3.0290 H       1  UNL1        0.0000
     21 H          -4.9341   12.3960    2.5376 H       1  UNL1        0.0000
     22 H          -5.7275   11.3924    1.3403 H       1  UNL1        0.0000
     23 H          -3.1733    7.8619    2.3119 H       1  UNL1        0.0000
     24 H          -4.7409    8.3425    2.9444 H       1  UNL1        0.0000
     25 H          -4.5089    8.1911    1.2247 H       1  UNL1        0.0000
     26 C           0.7177   10.8410    4.9678 C.3     1  UNL1        0.0000
     27 C          -0.0320   12.8105    3.6294 C.ar    1  UNL1        0.0000
     28 C           0.9430   11.8176    3.8858 C.ar    1  UNL1        0.0000
     29 SI          2.2082   10.3692    6.0382 Si      1  UNL1        0.0000
     30 H          -0.0255   11.2792    5.6580 H       1  UNL1        0.0000
     31 C           0.1703   13.7739    2.6550 C.ar    1  UNL1        0.0000
     32 C           2.1011   11.8544    3.0993 C.ar    1  UNL1        0.0000
     33 C           1.7324   10.7289    7.8666 C.3     1  UNL1        0.0000
     34 C           3.8281   11.3661    5.7825 C.3     1  UNL1        0.0000
     35 C           2.7060    8.5123    5.9006 C.3     1  UNL1        0.0000
     36 C           1.3256   13.7804    1.8904 C.ar    1  UNL1        0.0000
     37 H          -0.5928   14.5227    2.4939 H       1  UNL1        0.0000
     38 C           2.2860   12.8092    2.1169 C.ar    1  UNL1        0.0000
     39 H           2.8815   11.1299    3.2725 H       1  UNL1        0.0000
     40 H           0.6962   10.4939    8.0883 H       1  UNL1        0.0000
     41 H           2.3528   10.1653    8.5557 H       1  UNL1        0.0000
     42 H           1.8739   11.7813    8.0910 H       1  UNL1        0.0000
     43 H           4.4639   10.9416    5.0122 H       1  UNL1        0.0000
     44 H           3.6159   12.3929    5.5023 H       1  UNL1        0.0000
     45 H           4.4079   11.3893    6.7005 H       1  UNL1        0.0000
     46 H           1.8514    7.8603    5.7344 H       1  UNL1        0.0000
     47 H           3.4182    8.3398    5.0993 H       1  UNL1        0.0000
     48 H           3.1881    8.1915    6.8194 H       1  UNL1        0.0000
     49 H           1.4745   14.5346    1.1327 H       1  UNL1        0.0000
     50 H           3.1947   12.8023    1.5317 H       1  UNL1        0.0000
@<TRIPOS>BOND
     1    18     9    1
     2    19     9    1
     3    17     9    1
     4     9     8    1
     5    49    36    1
     6    25    11    1
     7    22    10    1
     8    50    38    1
     9    36    38   ar
    10    36    31   ar
    11     8    11    1
    12     8    10    1
    13     8     1    1
    14    38    32   ar
    15    11    23    1
    16    11    24    1
    17    10    21    1
    18    10    20    1
    19    12     1    1
    20    37    31    1
    21    31    27   ar
    22     1     2    1
    23    32    39    1
    24    32    28   ar
    25    27    28   ar
    26    27     7    1
    27    28    26    1
    28     2     7   ar
    29     2     3   ar
    30     7     6   ar
    31    13     3    1
    32     3     4   ar
    33    26    30    1
    34    26    29    1
    35    43    34    1
    36    47    35    1
    37     6    16    1
    38     6     5   ar
    39    44    34    1
    40    46    35    1
    41    34    29    1
    42    34    45    1
    43    35    29    1
    44    35    48    1
    45     4     5   ar
    46     4    14    1
    47    29    33    1
    48     5    15    1
    49    33    40    1
    50    33    42    1
    51    33    41    1
