@<TRIPOS>MOLECULE
4,6
 72 74 0 0 0
SMALL
GASTEIGER

@<TRIPOS>ATOM
      1 P           2.9018    9.3624   10.3295 P.3     1  UNL1       -0.0688
      2 P           2.0522    5.3936    7.3813 P.3     1  UNL1       -0.0688
      3 C           5.2550    7.3491   10.4643 C.ar    1  UNL1       -0.0172
      4 C           4.0296    6.6441   10.5709 C.ar    1  UNL1       -0.0534
      5 H           3.4573    6.7722   11.4887 H       1  UNL1        0.0624
      6 C           3.7939    5.5404    9.7497 C.ar    1  UNL1       -0.0534
      7 H           3.0372    4.8076   10.0262 H       1  UNL1        0.0624
      8 C           4.7815    5.1366    8.8163 C.ar    1  UNL1       -0.0172
      9 C           5.9812    5.8057    8.7591 C.ar    1  UNL1       -0.0534
     10 H           6.7345    5.5099    8.0447 H       1  UNL1        0.0624
     11 C           6.2187    6.9144    9.5854 C.ar    1  UNL1       -0.0534
     12 H           7.1505    7.4514    9.4917 H       1  UNL1        0.0624
     13 C           5.3936    8.5077   11.3497 C.ar    1  UNL1       -0.0103
     14 C           4.3026    9.3763   11.5288 C.ar    1  UNL1       -0.0152
     15 C           4.4050   10.3810   12.4880 C.ar    1  UNL1       -0.0536
     16 H           3.5726   11.0431   12.6713 H       1  UNL1        0.0624
     17 C           5.5569   10.5419   13.2372 C.ar    1  UNL1       -0.0611
     18 H           5.6054   11.3186   13.9865 H       1  UNL1        0.0618
     19 C           6.6485    9.7185   13.0159 C.ar    1  UNL1       -0.0611
     20 H           7.5572    9.8569   13.5828 H       1  UNL1        0.0618
     21 C           6.5607    8.7043   12.0824 C.ar    1  UNL1       -0.0534
     22 H           7.3925    8.0326   11.9279 H       1  UNL1        0.0624
     23 C           4.4257    3.9883    7.9792 C.ar    1  UNL1       -0.0103
     24 C           3.1283    3.8988    7.4450 C.ar    1  UNL1       -0.0152
     25 C           2.7628    2.7317    6.7789 C.ar    1  UNL1       -0.0536
     26 H           1.7632    2.6204    6.3873 H       1  UNL1        0.0624
     27 C           3.6561    1.6867    6.6231 C.ar    1  UNL1       -0.0611
     28 H           3.3438    0.7849    6.1169 H       1  UNL1        0.0618
     29 C           4.9501    1.8033    7.1033 C.ar    1  UNL1       -0.0611
     30 H           5.6560    0.9982    6.9631 H       1  UNL1        0.0618
     31 C           5.3265    2.9455    7.7829 C.ar    1  UNL1       -0.0534
     32 H           6.3216    3.0316    8.1942 H       1  UNL1        0.0624
     33 C           3.3821   10.9041    9.3613 C.3     1  UNL1       -0.0219
     34 H           2.8395   10.7814    8.4171 H       1  UNL1        0.0346
     35 C           4.8801   10.8657    9.0618 C.3     1  UNL1       -0.0584
     36 H           5.4603   11.0856    9.9563 H       1  UNL1        0.0236
     37 H           5.1261   11.6120    8.3089 H       1  UNL1        0.0236
     38 H           5.1846    9.8926    8.6833 H       1  UNL1        0.0236
     39 C           3.0199   12.2634    9.9529 C.3     1  UNL1       -0.0584
     40 H           1.9461   12.3918   10.0645 H       1  UNL1        0.0236
     41 H           3.3744   13.0388    9.2742 H       1  UNL1        0.0236
     42 H           3.5061   12.4243   10.9122 H       1  UNL1        0.0236
     43 C           1.4662    9.9505   11.3617 C.3     1  UNL1       -0.0219
     44 H           1.6658   10.9758   11.6908 H       1  UNL1        0.0346
     45 C           1.2523    9.0803   12.5969 C.3     1  UNL1       -0.0584
     46 H           1.0013    8.0616   12.3135 H       1  UNL1        0.0236
     47 H           0.4281    9.4764   13.1890 H       1  UNL1        0.0236
     48 H           2.1440    9.0568   13.2223 H       1  UNL1        0.0236
     49 C           0.2425    9.9493   10.4496 C.3     1  UNL1       -0.0584
     50 H           0.4123   10.5729    9.5717 H       1  UNL1        0.0236
     51 H          -0.6333   10.3216   10.9794 H       1  UNL1        0.0236
     52 H           0.0318    8.9339   10.1092 H       1  UNL1        0.0236
     53 C           2.2801    5.8016    5.5614 C.3     1  UNL1       -0.0219
     54 H           1.9594    6.8478    5.5102 H       1  UNL1        0.0346
     55 C           3.7661    5.7354    5.2104 C.3     1  UNL1       -0.0584
     56 H           4.3755    6.2438    5.9540 H       1  UNL1        0.0236
     57 H           3.9410    6.2140    4.2480 H       1  UNL1        0.0236
     58 H           4.1011    4.7020    5.1387 H       1  UNL1        0.0236
     59 C           1.4857    4.9972    4.5363 C.3     1  UNL1       -0.0584
     60 H           1.7395    3.9403    4.5743 H       1  UNL1        0.0236
     61 H           1.7444    5.3598    3.5420 H       1  UNL1        0.0236
     62 H           0.4123    5.1173    4.6589 H       1  UNL1        0.0236
     63 C           0.3329    4.6777    7.4267 C.3     1  UNL1       -0.0219
     64 H           0.1838    4.0648    6.5313 H       1  UNL1        0.0346
     65 C           0.1073    3.8007    8.6549 C.3     1  UNL1       -0.0584
     66 H           0.8261    2.9827    8.6918 H       1  UNL1        0.0236
     67 H          -0.8954    3.3757    8.6264 H       1  UNL1        0.0236
     68 H           0.1985    4.3831    9.5679 H       1  UNL1        0.0236
     69 C          -0.6322    5.8597    7.3885 C.3     1  UNL1       -0.0584
     70 H          -0.4977    6.4801    8.2764 H       1  UNL1        0.0236
     71 H          -1.6646    5.5136    7.3661 H       1  UNL1        0.0236
     72 H          -0.4521    6.4807    6.5100 H       1  UNL1        0.0236
@<TRIPOS>BOND
     1    61    59    1
     2    57    55    1
     3    59    60    1
     4    59    62    1
     5    59    53    1
     6    58    55    1
     7    55    53    1
     8    55    56    1
     9    54    53    1
    10    53     2    1
    11    28    27    1
    12    26    25    1
    13    72    69    1
    14    64    63    1
    15    27    25   ar
    16    27    29   ar
    17    25    24   ar
    18    30    29    1
    19    29    31   ar
    20    71    69    1
    21     2    63    1
    22     2    24    1
    23    69    63    1
    24    69    70    1
    25    63    65    1
    26    24    23   ar
    27    31    23   ar
    28    31    32    1
    29    23     8    1
    30    10     9    1
    31    37    35    1
    32    34    33    1
    33    67    65    1
    34    65    66    1
    35    65    68    1
    36    38    35    1
    37     9     8   ar
    38     9    11   ar
    39     8     6   ar
    40    35    33    1
    41    35    36    1
    42    41    39    1
    43    33    39    1
    44    33     1    1
    45    12    11    1
    46    50    49    1
    47    11     3   ar
    48     6     7    1
    49     6     4   ar
    50    39    40    1
    51    39    42    1
    52    52    49    1
    53     1    43    1
    54     1    14    1
    55    49    51    1
    56    49    43    1
    57     3     4   ar
    58     3    13    1
    59     4     5    1
    60    13    14   ar
    61    13    21   ar
    62    43    44    1
    63    43    45    1
    64    14    15   ar
    65    22    21    1
    66    21    19   ar
    67    46    45    1
    68    15    16    1
    69    15    17   ar
    70    45    47    1
    71    45    48    1
    72    19    17   ar
    73    19    20    1
    74    17    18    1
