@<TRIPOS>MOLECULE
3,4
 16 15 0 0 0
SMALL
GASTEIGER

@<TRIPOS>ATOM
      1 SI          2.3846    9.7863    5.8573 Si      1  UNL1        0.0000
      2 O           5.1363    8.0938    7.1851 O.2     1  UNL1        0.0000
      3 C           3.9880    8.0379    7.5509 C.2     1  UNL1        0.0000
      4 C           2.7205    8.5388    7.2241 C.3     1  UNL1        0.0000
      5 C           1.9749    9.0169    4.1503 C.3     1  UNL1        0.0000
      6 H           1.8361    9.8119    3.4229 H       1  UNL1        0.0000
      7 H           1.0588    8.4344    4.1680 H       1  UNL1        0.0000
      8 H           2.7759    8.3807    3.7882 H       1  UNL1        0.0000
      9 C           0.8347   10.7965    6.3681 C.3     1  UNL1        0.0000
     10 H           0.3658   11.2416    5.4967 H       1  UNL1        0.0000
     11 H           1.0739   11.6045    7.0526 H       1  UNL1        0.0000
     12 H           0.0977   10.1613    6.8520 H       1  UNL1        0.0000
     13 C           3.8836   10.9415    5.5804 C.3     1  UNL1        0.0000
     14 H           4.8072   10.4116    5.7925 H       1  UNL1        0.0000
     15 H           3.8492   11.8171    6.2215 H       1  UNL1        0.0000
     16 H           3.9314   11.2901    4.5530 H       1  UNL1        0.0000
@<TRIPOS>BOND
     1     6     5    1
     2     8     5    1
     3     5     7    1
     4     5     1    1
     5    16    13    1
     6    10     9    1
     7    13    14    1
     8    13     1    1
     9    13    15    1
    10     1     9    1
    11     1     4    1
    12     9    12    1
    13     9    11    1
    14     2     3    2
    15     4     3    1
