@<TRIPOS>MOLECULE
1,2
 14 14 0 0 0
SMALL
GASTEIGER

@<TRIPOS>ATOM
      1 C          -0.1972    4.1681   13.3673 C.3     1  UNL1       -0.0237
      2 C          -0.7267    5.2813   12.6019 C.ar    1  UNL1       -0.0470
      3 C          -2.0051    5.1874   12.0117 C.ar    1  UNL1       -0.0586
      4 C          -2.5134    6.2232   11.2488 C.ar    1  UNL1       -0.0615
      5 C          -1.7616    7.3692   11.0401 C.ar    1  UNL1       -0.0617
      6 C          -0.5033    7.4878   11.6190 C.ar    1  UNL1       -0.0615
      7 C           0.0150    6.4613   12.3803 C.ar    1  UNL1       -0.0586
      8 H           0.6091    4.4514   14.0448 H       1  UNL1        0.0316
      9 H          -0.9724    3.6313   13.9163 H       1  UNL1        0.0316
     10 H          -2.6321    4.3328   12.2428 H       1  UNL1        0.0620
     11 H          -3.4995    6.1396   10.8134 H       1  UNL1        0.0618
     12 H          -2.1600    8.1747   10.4414 H       1  UNL1        0.0618
     13 H           0.0703    8.3910   11.4723 H       1  UNL1        0.0618
     14 H           0.9827    6.5699   12.8563 H       1  UNL1        0.0620
@<TRIPOS>BOND
     1    12     5    1
     2    11     4    1
     3     5     4   ar
     4     5     6   ar
     5     4     3   ar
     6    13     6    1
     7     6     7   ar
     8     3    10    1
     9     3     2   ar
    10     7     2   ar
    11     7    14    1
    12     2     1    1
    13     1     9    1
    14     1     8    1
