@<TRIPOS>MOLECULE
3,6
 40 40 0 0 0
SMALL
GASTEIGER

@<TRIPOS>ATOM
      1 SI          2.1469    0.1061    1.5925 Si      1  UNL1        0.0000
      2 SI         -0.9397    5.8101    0.0464 Si      1  UNL1        0.0000
      3 C           1.3151    1.6969    1.0034 C.3     1  UNL1        0.0000
      4 C           1.9933    2.7012    0.1913 C.ar    1  UNL1        0.0000
      5 C           1.3172    3.9252   -0.1548 C.ar    1  UNL1        0.0000
      6 C          -0.0468    4.1655    0.3100 C.3     1  UNL1        0.0000
      7 C           2.0465    4.9065   -0.8389 C.ar    1  UNL1        0.0000
      8 C           3.3645    4.7288   -1.1957 C.ar    1  UNL1        0.0000
      9 C           4.0180    3.5492   -0.8570 C.ar    1  UNL1        0.0000
     10 C           3.3405    2.5666   -0.1706 C.ar    1  UNL1        0.0000
     11 C          -1.2466    6.2504   -1.7952 C.3     1  UNL1        0.0000
     12 C          -0.0239    7.2290    0.9414 C.3     1  UNL1        0.0000
     13 C          -2.6514    5.5854    0.8658 C.3     1  UNL1        0.0000
     14 C           0.7471   -0.9230    2.3916 C.3     1  UNL1        0.0000
     15 C           2.9003   -0.9705    0.1931 C.3     1  UNL1        0.0000
     16 C           3.4612    0.4979    2.9216 C.3     1  UNL1        0.0000
     17 H           0.3101    1.4500    0.6209 H       1  UNL1        0.0000
     18 H          -0.7348    3.3399    0.0620 H       1  UNL1        0.0000
     19 H           1.5500    5.8276   -1.1034 H       1  UNL1        0.0000
     20 H           3.8888    5.5036   -1.7363 H       1  UNL1        0.0000
     21 H           5.0527    3.4034   -1.1322 H       1  UNL1        0.0000
     22 H           3.8551    1.6547    0.0912 H       1  UNL1        0.0000
     23 H          -0.3284    6.4288   -2.3456 H       1  UNL1        0.0000
     24 H          -1.8515    7.1490   -1.8698 H       1  UNL1        0.0000
     25 H          -1.7812    5.4548   -2.3063 H       1  UNL1        0.0000
     26 H           0.3529    6.8713    1.8961 H       1  UNL1        0.0000
     27 H          -0.6876    8.0662    1.1351 H       1  UNL1        0.0000
     28 H           0.8191    7.6073    0.3717 H       1  UNL1        0.0000
     29 H          -2.5353    5.1962    1.8727 H       1  UNL1        0.0000
     30 H          -3.2745    4.8902    0.3109 H       1  UNL1        0.0000
     31 H          -3.1906    6.5250    0.9299 H       1  UNL1        0.0000
     32 H           1.1428   -1.7440    2.9807 H       1  UNL1        0.0000
     33 H           0.0850   -1.3490    1.6435 H       1  UNL1        0.0000
     34 H           0.1464   -0.3017    3.0488 H       1  UNL1        0.0000
     35 H           3.9183   -0.6815   -0.0484 H       1  UNL1        0.0000
     36 H           2.3186   -0.9075   -0.7222 H       1  UNL1        0.0000
     37 H           2.9243   -2.0136    0.4937 H       1  UNL1        0.0000
     38 H           3.0340    1.1449    3.6831 H       1  UNL1        0.0000
     39 H           4.3246    1.0068    2.5044 H       1  UNL1        0.0000
     40 H           3.8174   -0.4061    3.4063 H       1  UNL1        0.0000
@<TRIPOS>BOND
     1    23    11    1
     2    25    11    1
     3    24    11    1
     4    11     2    1
     5    20     8    1
     6     8     9   ar
     7     8     7   ar
     8    21     9    1
     9    19     7    1
    10     9    10   ar
    11     7     5   ar
    12    36    15    1
    13    10    22    1
    14    10     4   ar
    15     5     4   ar
    16     5     6    1
    17    35    15    1
    18     2     6    1
    19     2    13    1
    20     2    12    1
    21    18     6    1
    22     4     3    1
    23    15    37    1
    24    15     1    1
    25    30    13    1
    26    28    12    1
    27    17     3    1
    28    13    31    1
    29    13    29    1
    30    12    27    1
    31    12    26    1
    32     3     1    1
    33     1    14    1
    34     1    16    1
    35    33    14    1
    36    14    32    1
    37    14    34    1
    38    39    16    1
    39    16    40    1
    40    16    38    1
