@<TRIPOS>MOLECULE
1,24
 45 48 0 0 0
SMALL
GASTEIGER

@<TRIPOS>ATOM
      1 C           5.7010    2.1444   15.9801 C.3     1  UNL1        0.0000
      2 SI          4.5060    3.4264   16.6875 Si      1  UNL1        0.0000
      3 C           6.6525    1.3885   16.7322 C.2     1  UNL1        0.0000
      4 C           7.0413    0.2497   16.0032 C.2     1  UNL1        0.0000
      5 H           7.8508   -0.4195   16.2709 H       1  UNL1        0.0000
      6 C           6.3717    0.2773   14.7457 C.ar    1  UNL1        0.0000
      7 C           5.5194    1.4441   14.7389 C.ar    1  UNL1        0.0000
      8 C           6.4778   -0.5197   13.5953 C.ar    1  UNL1        0.0000
      9 H           7.1513   -1.3654   13.5751 H       1  UNL1        0.0000
     10 C           5.7462   -0.1914   12.4800 C.ar    1  UNL1        0.0000
     11 H           5.8177   -0.8007   11.5915 H       1  UNL1        0.0000
     12 C           4.9192    0.9396   12.4674 C.ar    1  UNL1        0.0000
     13 H           4.3829    1.1849   11.5613 H       1  UNL1        0.0000
     14 C           4.8082    1.7570   13.5683 C.ar    1  UNL1        0.0000
     15 H           4.2280    2.6671   13.5082 H       1  UNL1        0.0000
     16 C           7.3060    1.8284   18.0125 C.3     1  UNL1        0.0000
     17 H           6.6377    1.7233   18.8685 H       1  UNL1        0.0000
     18 H           8.1972    1.2313   18.2009 H       1  UNL1        0.0000
     19 H           7.6108    2.8716   17.9346 H       1  UNL1        0.0000
     20 C           3.7633    4.6391   15.4046 C.3     1  UNL1        0.0000
     21 H           3.1524    5.3789   15.9118 H       1  UNL1        0.0000
     22 H           4.5629    5.1703   14.8985 H       1  UNL1        0.0000
     23 H           3.1479    4.1736   14.6463 H       1  UNL1        0.0000
     24 C           3.3110    2.1444   17.3949 C.3     1  UNL1        0.0000
     25 C           2.3595    1.3885   16.6428 C.2     1  UNL1        0.0000
     26 C           1.9707    0.2497   17.3719 C.2     1  UNL1        0.0000
     27 H           1.1612   -0.4195   17.1041 H       1  UNL1        0.0000
     28 C           2.6402    0.2774   18.6294 C.ar    1  UNL1        0.0000
     29 C           3.4926    1.4441   18.6361 C.ar    1  UNL1        0.0000
     30 C           2.5342   -0.5196   19.7797 C.ar    1  UNL1        0.0000
     31 H           1.8607   -1.3654   19.7999 H       1  UNL1        0.0000
     32 C           3.2658   -0.1914   20.8950 C.ar    1  UNL1        0.0000
     33 H           3.1943   -0.8007   21.7835 H       1  UNL1        0.0000
     34 C           4.0928    0.9396   20.9076 C.ar    1  UNL1        0.0000
     35 H           4.6292    1.1849   21.8137 H       1  UNL1        0.0000
     36 C           4.2038    1.7570   19.8067 C.ar    1  UNL1        0.0000
     37 H           4.7840    2.6671   19.8668 H       1  UNL1        0.0000
     38 C           1.7060    1.8284   15.3625 C.3     1  UNL1        0.0000
     39 H           2.3743    1.7233   14.5064 H       1  UNL1        0.0000
     40 H           0.8148    1.2313   15.1741 H       1  UNL1        0.0000
     41 H           1.4012    2.8716   15.4404 H       1  UNL1        0.0000
     42 C           5.2488    4.6391   17.9704 C.3     1  UNL1        0.0000
     43 H           5.8596    5.3789   17.4632 H       1  UNL1        0.0000
     44 H           4.4491    5.1703   18.4764 H       1  UNL1        0.0000
     45 H           5.8642    4.1736   18.7287 H       1  UNL1        0.0000
@<TRIPOS>BOND
     1    13    12    1
     2    11    10    1
     3    12    10   ar
     4    12    14   ar
     5    10     8   ar
     6    15    14    1
     7    14     7   ar
     8     9     8    1
     9     8     6   ar
    10    39    38    1
    11    23    20    1
    12     7     6   ar
    13     7     1    1
    14     6     4    1
    15    22    20    1
    16    40    38    1
    17    38    41    1
    18    38    25    1
    19    20    21    1
    20    20     2    1
    21     1     2    1
    22     1     3    1
    23     4     5    1
    24     4     3    2
    25    25    26    2
    26    25    24    1
    27     2    24    1
    28     2    42    1
    29     3    16    1
    30    27    26    1
    31    26    28    1
    32    24    29    1
    33    43    42    1
    34    19    16    1
    35    42    44    1
    36    42    45    1
    37    16    18    1
    38    16    17    1
    39    28    29   ar
    40    28    30   ar
    41    29    36   ar
    42    30    31    1
    43    30    32   ar
    44    36    37    1
    45    36    34   ar
    46    32    34   ar
    47    32    33    1
    48    34    35    1
