@<TRIPOS>MOLECULE
2,24
 45 48 0 0 0
SMALL
GASTEIGER

@<TRIPOS>ATOM
      1 SI          7.5114    6.2487   12.5532 Si      1  UNL1        0.0000
      2 C           8.8457    4.9641   12.1756 C.3     1  UNL1        0.0000
      3 C           9.6214    4.2652   13.1624 C.ar    1  UNL1        0.0000
      4 C           9.9833    4.5821   14.4825 C.ar    1  UNL1        0.0000
      5 C          10.8638    3.7696   15.1586 C.ar    1  UNL1        0.0000
      6 C          11.4276    2.6403   14.5502 C.ar    1  UNL1        0.0000
      7 C          11.1186    2.3074   13.2538 C.ar    1  UNL1        0.0000
      8 C          10.2048    3.0987   12.5405 C.ar    1  UNL1        0.0000
      9 C           9.7514    3.0677   11.1898 C.2     1  UNL1        0.0000
     10 C           8.9551    4.2068   10.9684 C.2     1  UNL1        0.0000
     11 C           8.4797    4.6468    9.6119 C.3     1  UNL1        0.0000
     12 C           7.0987    7.4597   11.1283 C.3     1  UNL1        0.0000
     13 H          10.1157    2.3985   10.4190 H       1  UNL1        0.0000
     14 H          11.1543    4.0182   16.1698 H       1  UNL1        0.0000
     15 H           8.9479    4.0408    8.8374 H       1  UNL1        0.0000
     16 H           7.3974    4.5556    9.5090 H       1  UNL1        0.0000
     17 H           9.6268    5.4927   14.9432 H       1  UNL1        0.0000
     18 H          11.5988    1.4626   12.7794 H       1  UNL1        0.0000
     19 H           6.9750    6.9936   10.1598 H       1  UNL1        0.0000
     20 H           8.7593    5.6858    9.4398 H       1  UNL1        0.0000
     21 H          12.1261    2.0353   15.1087 H       1  UNL1        0.0000
     22 H           6.1817    7.9932   11.3563 H       1  UNL1        0.0000
     23 H           7.8892    8.1977   11.0365 H       1  UNL1        0.0000
     24 C           6.1770    4.9641   12.9308 C.3     1  UNL1        0.0000
     25 C           5.4014    4.2652   11.9440 C.ar    1  UNL1        0.0000
     26 C           5.0394    4.5821   10.6239 C.ar    1  UNL1        0.0000
     27 C           4.1589    3.7696    9.9477 C.ar    1  UNL1        0.0000
     28 C           3.5951    2.6403   10.5561 C.ar    1  UNL1        0.0000
     29 C           3.9041    2.3074   11.8526 C.ar    1  UNL1        0.0000
     30 C           4.8180    3.0987   12.5658 C.ar    1  UNL1        0.0000
     31 C           5.2713    3.0677   13.9165 C.2     1  UNL1        0.0000
     32 C           6.0676    4.2068   14.1380 C.2     1  UNL1        0.0000
     33 C           6.5430    4.6467   15.4945 C.3     1  UNL1        0.0000
     34 C           7.9240    7.4597   13.9782 C.3     1  UNL1        0.0000
     35 H           4.9069    2.3985   14.6874 H       1  UNL1        0.0000
     36 H           3.8684    4.0183    8.9366 H       1  UNL1        0.0000
     37 H           6.0748    4.0407   16.2690 H       1  UNL1        0.0000
     38 H           7.6253    4.5556   15.5975 H       1  UNL1        0.0000
     39 H           5.3960    5.4928   10.1632 H       1  UNL1        0.0000
     40 H           3.4239    1.4626   12.3270 H       1  UNL1        0.0000
     41 H           8.0477    6.9935   14.9467 H       1  UNL1        0.0000
     42 H           6.2634    5.6858   15.6666 H       1  UNL1        0.0000
     43 H           2.8966    2.0354    9.9976 H       1  UNL1        0.0000
     44 H           8.8411    7.9932   13.7502 H       1  UNL1        0.0000
     45 H           7.1336    8.1976   14.0700 H       1  UNL1        0.0000
@<TRIPOS>BOND
     1    15    11    1
     2    36    27    1
     3    20    11    1
     4    16    11    1
     5    11    10    1
     6    27    28   ar
     7    27    26   ar
     8    43    28    1
     9    19    12    1
    10    39    26    1
    11    13     9    1
    12    28    29   ar
    13    26    25   ar
    14    10     9    2
    15    10     2    1
    16    23    12    1
    17    12    22    1
    18    12     1    1
    19     9     8    1
    20    29    40    1
    21    29    30   ar
    22    25    30   ar
    23    25    24    1
    24     2     1    1
    25     2     3    1
    26     8     3   ar
    27     8     7   ar
    28     1    24    1
    29     1    34    1
    30    30    31    1
    31    18     7    1
    32    24    32    1
    33     3     4   ar
    34     7     6   ar
    35    44    34    1
    36    31    32    2
    37    31    35    1
    38    34    45    1
    39    34    41    1
    40    32    33    1
    41     4    17    1
    42     4     5   ar
    43     6    21    1
    44     6     5   ar
    45     5    14    1
    46    33    38    1
    47    33    42    1
    48    33    37    1
