@<TRIPOS>MOLECULE
4,6
 51 54 0 0 0
SMALL
GASTEIGER

@<TRIPOS>ATOM
      1 S          -3.0066   -1.3138  -10.8062 S.3     1  UNL1        0.0000
      2 S          -4.5685    1.9872  -15.2995 S.3     1  UNL1        0.0000
      3 SI         -2.8091    0.5848  -13.1423 Si      1  UNL1        0.0000
      4 C          -3.5452   -1.0767  -12.5120 C.3     1  UNL1        0.0000
      5 H          -3.1023   -1.9216  -13.0482 H       1  UNL1        0.0000
      6 C          -4.5083    1.3269  -13.6100 C.3     1  UNL1        0.0000
      7 H          -4.7979    2.1657  -12.9720 H       1  UNL1        0.0000
      8 C          -3.3999   -2.9999  -10.4411 C.ar    1  UNL1        0.0000
      9 C          -2.8352   -3.5469   -9.2911 C.ar    1  UNL1        0.0000
     10 H          -2.1862   -2.9333   -8.6851 H       1  UNL1        0.0000
     11 C          -3.1082   -4.8535   -8.9401 C.ar    1  UNL1        0.0000
     12 H          -2.6666   -5.2704   -8.0471 H       1  UNL1        0.0000
     13 C          -3.9417   -5.6307   -9.7307 C.ar    1  UNL1        0.0000
     14 H          -4.1517   -6.6536   -9.4571 H       1  UNL1        0.0000
     15 C          -4.5062   -5.0852  -10.8707 C.ar    1  UNL1        0.0000
     16 H          -5.1619   -5.6821  -11.4885 H       1  UNL1        0.0000
     17 C          -4.2432   -3.7746  -11.2281 C.ar    1  UNL1        0.0000
     18 H          -4.7080   -3.3484  -12.1096 H       1  UNL1        0.0000
     19 C          -3.3497    3.2678  -15.3608 C.ar    1  UNL1        0.0000
     20 C          -2.8877    3.9405  -14.2384 C.ar    1  UNL1        0.0000
     21 H          -3.2558    3.6932  -13.2560 H       1  UNL1        0.0000
     22 C          -1.9350    4.9343  -14.3750 C.ar    1  UNL1        0.0000
     23 H          -1.5750    5.4447  -13.4933 H       1  UNL1        0.0000
     24 C          -1.4465    5.2729  -15.6247 C.ar    1  UNL1        0.0000
     25 H          -0.7016    6.0481  -15.7247 H       1  UNL1        0.0000
     26 C          -1.9214    4.6118  -16.7472 C.ar    1  UNL1        0.0000
     27 H          -1.5475    4.8709  -17.7267 H       1  UNL1        0.0000
     28 C          -2.8670    3.6149  -16.6193 C.ar    1  UNL1        0.0000
     29 H          -3.2370    3.0892  -17.4863 H       1  UNL1        0.0000
     30 C          -1.8697    1.5316  -11.7827 C.ar    1  UNL1        0.0000
     31 C          -2.5125    2.4066  -10.9133 C.ar    1  UNL1        0.0000
     32 H          -3.5756    2.5809  -11.0166 H       1  UNL1        0.0000
     33 C          -1.8188    3.0632   -9.9130 C.ar    1  UNL1        0.0000
     34 H          -2.3391    3.7401   -9.2500 H       1  UNL1        0.0000
     35 C          -0.4594    2.8519   -9.7608 C.ar    1  UNL1        0.0000
     36 H           0.0856    3.3643   -8.9814 H       1  UNL1        0.0000
     37 C           0.1961    1.9780  -10.6114 C.ar    1  UNL1        0.0000
     38 H           1.2566    1.8051  -10.4962 H       1  UNL1        0.0000
     39 C          -0.5044    1.3251  -11.6088 C.ar    1  UNL1        0.0000
     40 H           0.0140    0.6448  -12.2684 H       1  UNL1        0.0000
     41 C          -1.6243    0.3944  -14.6214 C.ar    1  UNL1        0.0000
     42 C          -1.6179   -0.7428  -15.4228 C.ar    1  UNL1        0.0000
     43 H          -2.2517   -1.5807  -15.1674 H       1  UNL1        0.0000
     44 C          -0.8078   -0.8278  -16.5411 C.ar    1  UNL1        0.0000
     45 H          -0.8227   -1.7204  -17.1505 H       1  UNL1        0.0000
     46 C           0.0169    0.2305  -16.8814 C.ar    1  UNL1        0.0000
     47 H           0.6434    0.1703  -17.7595 H       1  UNL1        0.0000
     48 C           0.0378    1.3628  -16.0851 C.ar    1  UNL1        0.0000
     49 H           0.6828    2.1921  -16.3368 H       1  UNL1        0.0000
     50 C          -0.7716    1.4391  -14.9670 C.ar    1  UNL1        0.0000
     51 H          -0.7409    2.3250  -14.3508 H       1  UNL1        0.0000
@<TRIPOS>BOND
     1    47    46    1
     2    27    26    1
     3    29    28    1
     4    45    44    1
     5    46    44   ar
     6    46    48   ar
     7    26    28   ar
     8    26    24   ar
     9    28    19   ar
    10    44    42   ar
    11    49    48    1
    12    48    50   ar
    13    25    24    1
    14    24    22   ar
    15    42    43    1
    16    42    41   ar
    17    19     2    1
    18    19    20   ar
    19     2     6    1
    20    50    41   ar
    21    50    51    1
    22    41     3    1
    23    22    20   ar
    24    22    23    1
    25    20    21    1
    26     6     3    1
    27     6     7    1
    28     3     4    1
    29     3    30    1
    30     5     4    1
    31     4     1    1
    32    40    39    1
    33    18    17    1
    34    30    39   ar
    35    30    31   ar
    36    39    37   ar
    37    16    15    1
    38    17    15   ar
    39    17     8   ar
    40    32    31    1
    41    31    33   ar
    42    15    13   ar
    43     1     8    1
    44    37    38    1
    45    37    35   ar
    46     8     9   ar
    47    33    35   ar
    48    33    34    1
    49    35    36    1
    50    13    14    1
    51    13    11   ar
    52     9    11   ar
    53     9    10    1
    54    11    12    1
