@<TRIPOS>MOLECULE
1,7
 20 20 0 0 0
SMALL
GASTEIGER

@<TRIPOS>ATOM
      1 C           0.1620    7.1300    4.8696 C.2     1  UNL1       -0.0577
      2 H           0.2650    6.3264    5.6066 H       1  UNL1        0.0621
      3 C          -0.5773    8.1822    5.2371 C.2     1  UNL1       -0.0402
      4 C          -0.7462    9.2682    4.2050 C.3     1  UNL1       -0.0271
      5 H          -0.8327   10.2508    4.6844 H       1  UNL1        0.0313
      6 H          -1.6674    9.0883    3.6376 H       1  UNL1        0.0313
      7 C           0.4501    9.1862    3.2581 C.3     1  UNL1       -0.0487
      8 H           1.2882    9.7206    3.7382 H       1  UNL1        0.0268
      9 H           0.2182    9.7315    2.3317 H       1  UNL1        0.0268
     10 C          -1.2547    8.3205    6.5346 C.ar    1  UNL1       -0.0219
     11 C          -2.5048    8.9323    6.6280 C.ar    1  UNL1       -0.0543
     12 H          -2.9837    9.3048    5.7347 H       1  UNL1        0.0624
     13 C          -3.1473    9.0468    7.8465 C.ar    1  UNL1       -0.0612
     14 H          -4.1190    9.5169    7.8984 H       1  UNL1        0.0618
     15 C          -2.5510    8.5634    8.9991 C.ar    1  UNL1       -0.0617
     16 H          -3.0520    8.6572    9.9514 H       1  UNL1        0.0618
     17 C          -1.3056    7.9621    8.9227 C.ar    1  UNL1       -0.0612
     18 H          -0.8306    7.5895    9.8192 H       1  UNL1        0.0618
     19 C          -0.6653    7.8405    7.7043 C.ar    1  UNL1       -0.0543
     20 H           0.3142    7.3869    7.6544 H       1  UNL1        0.0624
@<TRIPOS>BOND
     1     9     7    1
     2     7     8    1
     3     7     4    1
     4     6     4    1
     5     4     5    1
     6     4     3    1
     7     1     3    2
     8     1     2    1
     9     3    10    1
    10    12    11    1
    11    10    11   ar
    12    10    19   ar
    13    11    13   ar
    14    20    19    1
    15    19    17   ar
    16    13    14    1
    17    13    15   ar
    18    17    15   ar
    19    17    18    1
    20    15    16    1
