@<TRIPOS>MOLECULE
1,6
 28 29 0 0 0
SMALL
GASTEIGER

@<TRIPOS>ATOM
      1 C          14.1359    1.7363    2.3148 C.2     1  UNL1       -0.0102
      2 C          13.2017    0.9919    1.6948 C.2     1  UNL1       -0.0529
      3 H          12.4149    1.4045    1.0695 H       1  UNL1        0.0624
      4 C          13.2037   -0.4206    1.9949 C.2     1  UNL1       -0.0529
      5 H          12.4186   -1.0539    1.5916 H       1  UNL1        0.0624
      6 C          14.1388   -0.8463    2.8642 C.2     1  UNL1       -0.0102
      7 C          14.1891    3.1812    2.1404 C.ar    1  UNL1       -0.0173
      8 C          13.9890    3.7915    0.8989 C.ar    1  UNL1       -0.0540
      9 H          13.8172    3.1736    0.0284 H       1  UNL1        0.0624
     10 C          14.0221    5.1681    0.7756 C.ar    1  UNL1       -0.0612
     11 H          13.8706    5.6251   -0.1924 H       1  UNL1        0.0618
     12 C          14.2448    5.9645    1.8879 C.ar    1  UNL1       -0.0617
     13 H          14.2645    7.0399    1.7893 H       1  UNL1        0.0618
     14 C          14.4451    5.3721    3.1258 C.ar    1  UNL1       -0.0612
     15 H          14.6136    5.9911    3.9956 H       1  UNL1        0.0618
     16 C          14.4285    3.9966    3.2508 C.ar    1  UNL1       -0.0540
     17 H          14.5680    3.5266    4.2180 H       1  UNL1        0.0624
     18 C          14.1929   -2.2373    3.2926 C.ar    1  UNL1       -0.0173
     19 C          14.4227   -2.5313    4.6401 C.ar    1  UNL1       -0.0540
     20 H          14.5556   -1.7096    5.3347 H       1  UNL1        0.0624
     21 C          14.4379   -3.8392    5.0842 C.ar    1  UNL1       -0.0612
     22 H          14.5983   -4.0514    6.1317 H       1  UNL1        0.0618
     23 C          14.2464   -4.8833    4.1918 C.ar    1  UNL1       -0.0617
     24 H          14.2649   -5.9061    4.5384 H       1  UNL1        0.0618
     25 C          14.0338   -4.6074    2.8502 C.ar    1  UNL1       -0.0612
     26 H          13.8896   -5.4181    2.1498 H       1  UNL1        0.0618
     27 C          14.0016   -3.2992    2.4041 C.ar    1  UNL1       -0.0540
     28 H          13.8372   -3.0879    1.3566 H       1  UNL1        0.0624
@<TRIPOS>BOND
     1    11    10    1
     2     9     8    1
     3    10     8   ar
     4    10    12   ar
     5     8     7   ar
     6     3     2    1
     7    28    27    1
     8     5     4    1
     9     2     4    1
    10     2     1    2
    11    13    12    1
    12    12    14   ar
    13     4     6    2
    14     7     1    1
    15     7    16   ar
    16    26    25    1
    17    27    25   ar
    18    27    18   ar
    19    25    23   ar
    20     6    18    1
    21    14    16   ar
    22    14    15    1
    23    16    17    1
    24    18    19   ar
    25    23    24    1
    26    23    21   ar
    27    19    21   ar
    28    19    20    1
    29    21    22    1
