@<TRIPOS>MOLECULE
3,6
 50 49 0 0 0
SMALL
GASTEIGER

@<TRIPOS>ATOM
      1 SI          8.2360    4.8662    4.0181 Si      1  UNL1        0.0000
      2 SI          3.9459   -0.0689    4.2579 Si      1  UNL1        0.0000
      3 C           7.0184    3.4614    4.2733 C.2     1  UNL1        0.0000
      4 C           6.5230    3.0720    5.4729 C.2     1  UNL1        0.0000
      5 C           5.6165    1.8948    5.5321 C.2     1  UNL1        0.0000
      6 C           5.1583    1.3584    4.3753 C.2     1  UNL1        0.0000
      7 C           6.7756    3.8448    6.7513 C.3     1  UNL1        0.0000
      8 H           7.6855    4.4340    6.6425 H       1  UNL1        0.0000
      9 H           6.9117    3.1864    7.6089 H       1  UNL1        0.0000
     10 C           5.6039    4.7966    7.0171 C.3     1  UNL1        0.0000
     11 H           5.4995    5.4650    6.1600 H       1  UNL1        0.0000
     12 H           4.6771    4.2242    7.1001 H       1  UNL1        0.0000
     13 C           5.8146    5.6145    8.2855 C.3     1  UNL1        0.0000
     14 H           4.9799    6.2926    8.4494 H       1  UNL1        0.0000
     15 H           6.7259    6.2046    8.2119 H       1  UNL1        0.0000
     16 H           5.9015    4.9631    9.1530 H       1  UNL1        0.0000
     17 C           5.3218    1.2867    6.8881 C.3     1  UNL1        0.0000
     18 H           5.1601    2.0465    7.6524 H       1  UNL1        0.0000
     19 H           4.4144    0.6870    6.8246 H       1  UNL1        0.0000
     20 C           6.4822    0.3773    7.3075 C.3     1  UNL1        0.0000
     21 H           7.4071    0.9574    7.3494 H       1  UNL1        0.0000
     22 H           6.6130   -0.3918    6.5436 H       1  UNL1        0.0000
     23 C           6.2285   -0.2778    8.6597 C.3     1  UNL1        0.0000
     24 H           7.0564   -0.9279    8.9341 H       1  UNL1        0.0000
     25 H           5.3195   -0.8752    8.6296 H       1  UNL1        0.0000
     26 H           6.1135    0.4758    9.4365 H       1  UNL1        0.0000
     27 C           8.5825    5.0028    2.1226 C.3     1  UNL1        0.0000
     28 H           8.3654    6.0016    1.7549 H       1  UNL1        0.0000
     29 H           7.9843    4.2974    1.5430 H       1  UNL1        0.0000
     30 H           9.6283    4.8097    1.9015 H       1  UNL1        0.0000
     31 C           7.7092    6.6394    4.5513 C.3     1  UNL1        0.0000
     32 H           8.3959    7.3836    4.1583 H       1  UNL1        0.0000
     33 H           7.6950    6.7478    5.6304 H       1  UNL1        0.0000
     34 H           6.7157    6.8862    4.1876 H       1  UNL1        0.0000
     35 C           9.9496    4.5408    4.8325 C.3     1  UNL1        0.0000
     36 H          10.7173    5.1748    4.3993 H       1  UNL1        0.0000
     37 H          10.2576    3.5079    4.6979 H       1  UNL1        0.0000
     38 H           9.9332    4.7347    5.8998 H       1  UNL1        0.0000
     39 C           2.2071    0.3518    4.9689 C.3     1  UNL1        0.0000
     40 H           1.4529   -0.3326    4.5927 H       1  UNL1        0.0000
     41 H           1.9058    1.3594    4.6973 H       1  UNL1        0.0000
     42 H           2.1881    0.2918    6.0520 H       1  UNL1        0.0000
     43 C           4.4498   -1.7613    5.0248 C.3     1  UNL1        0.0000
     44 H           3.7790   -2.5510    4.6987 H       1  UNL1        0.0000
     45 H           4.4204   -1.7366    6.1087 H       1  UNL1        0.0000
     46 H           5.4571   -2.0464    4.7343 H       1  UNL1        0.0000
     47 C           3.6613   -0.4407    2.3837 C.3     1  UNL1        0.0000
     48 H           3.8870   -1.4772    2.1501 H       1  UNL1        0.0000
     49 H           4.2805    0.1875    1.7409 H       1  UNL1        0.0000
     50 H           2.6241   -0.2775    2.1059 H       1  UNL1        0.0000
@<TRIPOS>BOND
     1    29    27    1
     2    49    47    1
     3    28    27    1
     4    30    27    1
     5    50    47    1
     6    27     1    1
     7    48    47    1
     8    47     2    1
     9     1     3    1
    10     1    31    1
    11     1    35    1
    12    32    31    1
    13    34    31    1
    14     2     6    1
    15     2    39    1
    16     2    43    1
    17     3     4    2
    18     6     5    2
    19    36    35    1
    20    31    33    1
    21    40    39    1
    22    41    39    1
    23    37    35    1
    24    44    43    1
    25    46    43    1
    26    35    38    1
    27    39    42    1
    28    43    45    1
    29     4     5    1
    30     4     7    1
    31     5    17    1
    32    11    10    1
    33    22    20    1
    34     8     7    1
    35     7    10    1
    36     7     9    1
    37    19    17    1
    38    17    20    1
    39    17    18    1
    40    10    12    1
    41    10    13    1
    42    20    21    1
    43    20    23    1
    44    15    13    1
    45    13    14    1
    46    13    16    1
    47    25    23    1
    48    23    24    1
    49    23    26    1
