@<TRIPOS>MOLECULE
1,9
 10 10 0 0 0
SMALL
GASTEIGER

@<TRIPOS>ATOM
      1 C           8.2703   11.4853   -0.3393 C.2     1  UNL1       -0.0763
      2 H           9.0770   10.7647   -0.3178 H       1  UNL1        0.0578
      3 C           8.4356   12.8575   -0.4959 C.2     1  UNL1       -0.0654
      4 H           9.3417   13.3479   -0.8073 H       1  UNL1        0.0615
      5 C           7.2508   13.5019   -0.1228 C.2     1  UNL1       -0.0654
      6 H           7.0978   14.5662   -0.1214 H       1  UNL1        0.0615
      7 C           6.3291   12.5486    0.2776 C.2     1  UNL1       -0.0763
      8 H           5.3565   12.7503    0.6963 H       1  UNL1        0.0578
      9 C           6.9156   11.2611    0.1460 C.3     1  UNL1        0.0054
     10 H           6.6133   10.4101    0.7466 H       1  UNL1        0.0394
@<TRIPOS>BOND
     1     4     3    1
     2     3     1    2
     3     3     5    1
     4     1     2    1
     5     1     9    1
     6     5     6    1
     7     5     7    2
     8     9     7    1
     9     9    10    1
    10     7     8    1
