@<TRIPOS>MOLECULE
1,2
 10 9 0 0 0
SMALL
GASTEIGER

@<TRIPOS>ATOM
      1 C          -2.9604    1.9631    9.4154 C.2     1  UNL1       -0.0441
      2 C          -3.1223    2.2987   10.6568 C.2     1  UNL1       -0.0441
      3 C          -3.7486    1.6643    8.1916 C.3     1  UNL1       -0.0392
      4 C          -4.2140    2.5980   11.6224 C.3     1  UNL1       -0.0392
      5 H          -3.4758    2.3637    7.4007 H       1  UNL1        0.0278
      6 H          -4.8197    1.7374    8.3888 H       1  UNL1        0.0278
      7 H          -3.5107    0.6606    7.8384 H       1  UNL1        0.0278
      8 H          -4.1533    1.9301   12.4820 H       1  UNL1        0.0278
      9 H          -5.1894    2.4769   11.1488 H       1  UNL1        0.0278
     10 H          -4.1237    3.6219   11.9861 H       1  UNL1        0.0278
@<TRIPOS>BOND
     1     5     3    1
     2     7     3    1
     3     3     6    1
     4     3     1    1
     5     1     2    2
     6     2     4    1
     7     9     4    1
     8     4    10    1
     9     4     8    1
