@<TRIPOS>MOLECULE
2,4
 24 23 0 0 0
SMALL
GASTEIGER

@<TRIPOS>ATOM
      1 SI         -1.3310    3.2399    5.8319 Si      1  UNL1        0.0000
      2 C           2.1004    3.9852    3.5767 C.3     1  UNL1        0.0000
      3 C           1.4359    3.5876    4.8958 C.3     1  UNL1        0.0000
      4 C          -0.0444    3.8650    4.5914 C.3     1  UNL1        0.0000
      5 C           1.9715    4.3671    6.1019 C.3     1  UNL1        0.0000
      6 C          -0.8301    1.7933    6.9961 C.3     1  UNL1        0.0000
      7 C          -1.7691    4.6598    7.0600 C.3     1  UNL1        0.0000
      8 C          -2.9907    2.8200    4.9543 C.3     1  UNL1        0.0000
      9 H           3.0098    3.4154    3.3640 H       1  UNL1        0.0000
     10 H           2.3868    5.0402    3.6350 H       1  UNL1        0.0000
     11 H           1.5884    2.5220    5.1046 H       1  UNL1        0.0000
     12 H          -0.1327    4.9541    4.6738 H       1  UNL1        0.0000
     13 H           3.0458    4.2162    6.2083 H       1  UNL1        0.0000
     14 H           1.4833    4.0373    7.0169 H       1  UNL1        0.0000
     15 H           1.7841    5.4334    5.9828 H       1  UNL1        0.0000
     16 H           0.2480    1.6883    7.0646 H       1  UNL1        0.0000
     17 H          -1.1964    1.9797    8.0012 H       1  UNL1        0.0000
     18 H          -1.2335    0.8384    6.6775 H       1  UNL1        0.0000
     19 H          -2.5467    4.3538    7.7541 H       1  UNL1        0.0000
     20 H          -0.9069    4.9591    7.6481 H       1  UNL1        0.0000
     21 H          -2.1301    5.5451    6.5441 H       1  UNL1        0.0000
     22 H          -3.7845    3.4738    5.3000 H       1  UNL1        0.0000
     23 H          -3.3129    1.8007    5.1429 H       1  UNL1        0.0000
     24 H          -2.9005    2.9551    3.8789 H       1  UNL1        0.0000
@<TRIPOS>BOND
     1     9     2    1
     2     2    10    1
     3     2     3    1
     4    24     8    1
     5     4    12    1
     6     4     3    1
     7     4     1    1
     8     3    11    1
     9     3     5    1
    10     8    23    1
    11     8    22    1
    12     8     1    1
    13     1     6    1
    14     1     7    1
    15    15     5    1
    16     5    13    1
    17     5    14    1
    18    21     7    1
    19    18     6    1
    20     6    16    1
    21     6    17    1
    22     7    20    1
    23     7    19    1
