@<TRIPOS>MOLECULE
3,18
 50 54 0 0 0
SMALL
GASTEIGER

@<TRIPOS>ATOM
      1 SI          8.8130   12.7225   10.2122 Si      1  UNL1        0.0000
      2 C          10.0380   10.0640   13.2662 C.3     1  UNL1        0.0000
      3 C           9.3070    8.7330   12.6831 C.3     1  UNL1        0.0000
      4 C           9.9689   11.2369   12.3357 C.3     1  UNL1        0.0000
      5 C          10.8534   12.4090   12.7007 C.3     1  UNL1        0.0000
      6 H          11.0231   12.4374   13.7759 H       1  UNL1        0.0000
      7 H          10.3719   13.3398   12.4020 H       1  UNL1        0.0000
      8 C          12.2002   12.2983   11.9740 C.3     1  UNL1        0.0000
      9 H          12.7321   11.4110   12.3211 H       1  UNL1        0.0000
     10 H          12.0068   12.1745   10.9064 H       1  UNL1        0.0000
     11 C          13.0893   13.5245   12.1819 C.3     1  UNL1        0.0000
     12 H          13.9544   13.4433   11.5191 H       1  UNL1        0.0000
     13 H          12.5396   14.4250   11.8963 H       1  UNL1        0.0000
     14 C          13.5814   13.6678   13.6177 C.3     1  UNL1        0.0000
     15 H          14.2734   14.5031   13.6982 H       1  UNL1        0.0000
     16 H          14.0971   12.7641   13.9344 H       1  UNL1        0.0000
     17 H          12.7540   13.8480   14.2986 H       1  UNL1        0.0000
     18 C           9.1579   11.1927   11.2549 C.3     1  UNL1        0.0000
     19 C           7.9539   14.1138   11.2264 C.3     1  UNL1        0.0000
     20 H           8.6681   14.7705   11.7117 H       1  UNL1        0.0000
     21 H           7.3172   13.6967   12.0017 H       1  UNL1        0.0000
     22 H           7.3314   14.7308   10.5857 H       1  UNL1        0.0000
     23 C          10.2499   13.5566    9.2405 C.3     1  UNL1        0.0000
     24 H          10.9150   14.1070    9.8968 H       1  UNL1        0.0000
     25 H           9.8592   14.2602    8.5111 H       1  UNL1        0.0000
     26 H          10.8512   12.8299    8.7014 H       1  UNL1        0.0000
     27 C           7.5235   12.2461    8.8657 C.3     1  UNL1        0.0000
     28 H           6.5121   12.2725    9.2600 H       1  UNL1        0.0000
     29 H           7.7022   11.2587    8.4419 H       1  UNL1        0.0000
     30 H           7.5579   12.9597    8.0478 H       1  UNL1        0.0000
     31 B          11.0425    8.7464   12.8862 B       1  UNL1        0.0000
     32 H          11.7202    8.8486   11.9322 H       1  UNL1        0.0000
     33 B          11.3556    9.6936   14.3300 B       1  UNL1        0.0000
     34 H          12.2946   10.3982   14.3570 H       1  UNL1        0.0000
     35 B           9.8255   10.2400   14.9790 B       1  UNL1        0.0000
     36 H           9.7211   11.3246   15.4221 H       1  UNL1        0.0000
     37 B           8.5346    9.6290   13.9587 B       1  UNL1        0.0000
     38 H           7.6280   10.3252   13.6546 H       1  UNL1        0.0000
     39 B          10.0894    7.3401   13.3194 B       1  UNL1        0.0000
     40 H          10.1113    6.3766   12.6322 H       1  UNL1        0.0000
     41 B          11.4036    7.9142   14.3888 B       1  UNL1        0.0000
     42 H          12.4117    7.3212   14.5194 H       1  UNL1        0.0000
     43 B          10.6449    8.8444   15.7113 B       1  UNL1        0.0000
     44 H          11.1298    8.9071   16.7818 H       1  UNL1        0.0000
     45 B           8.8798    8.8143   15.4767 B       1  UNL1        0.0000
     46 H           8.1143    8.8505   16.3696 H       1  UNL1        0.0000
     47 B           8.5648    7.8760   13.9983 B       1  UNL1        0.0000
     48 H           7.5889    7.2533   13.7749 H       1  UNL1        0.0000
     49 B           9.8619    7.3694   15.0918 B       1  UNL1        0.0000
     50 H           9.7831    6.3782   15.7214 H       1  UNL1        0.0000
@<TRIPOS>BOND
     1    30    27    1
     2    29    27    1
     3    25    23    1
     4    26    23    1
     5    27    28    1
     6    27     1    1
     7    23    24    1
     8    23     1    1
     9     1    19    1
    10     1    18    1
    11    22    19    1
    12    10     8    1
    13    19    20    1
    14    19    21    1
    15    18     4    1
    16    12    11    1
    17    13    11    1
    18    32    31    1
    19     8    11    1
    20     8     9    1
    21     8     5    1
    22    11    14    1
    23     4     5    1
    24     4     2    1
    25     7     5    1
    26    40    39    1
    27     3     2    1
    28     3    39    1
    29     3    37    1
    30     3    47    1
    31     5     6    1
    32    31     2    1
    33    31    39    1
    34    31    33    1
    35     2    37    1
    36    39    47    1
    37    14    15    1
    38    14    16    1
    39    14    17    1
    40    38    37    1
    41    48    47    1
    42    37    47    1
    43    33    34    1
    44    33    35    1
    45    33    43    1
    46    41    42    1
    47    41    49    1
    48    35    36    1
    49    35    43    1
    50    49    45    1
    51    49    50    1
    52    45    43    1
    53    45    46    1
    54    43    44    1
