@<TRIPOS>MOLECULE
1,3
 4 3 0 0 0
SMALL
GASTEIGER

@<TRIPOS>ATOM
      1 C          -0.5108    1.4081    5.0962 C.2     1  UNL1        0.2794
      2 O          -1.3791    2.0379    4.6089 O.2     1  UNL1       -0.2794
      3 C           1.2154    2.0558    4.9399 C.2     1  UNL1        0.2794
      4 O           1.3913    3.1056    4.4229 O.2     1  UNL1       -0.2794
@<TRIPOS>BOND
     1     4     3    2
     2     2     1    2
     3     3     1    1
