@<TRIPOS>MOLECULE
1,2
 6 5 0 0 0
SMALL
GASTEIGER

@<TRIPOS>ATOM
      1 C           2.1220    5.2974    6.2739 C.3     1  UNL1       -0.0531
      2 C           2.6295    4.0660    6.7880 C.3     1  UNL1       -0.0531
      3 H           1.3271    5.7917    6.8292 H       1  UNL1        0.0265
      4 H           2.8638    6.0027    5.9071 H       1  UNL1        0.0265
      5 H           2.1829    3.6755    7.6998 H       1  UNL1        0.0265
      6 H           3.7077    3.9419    6.7801 H       1  UNL1        0.0265
@<TRIPOS>BOND
     1     4     1    1
     2     1     2    1
     3     1     3    1
     4     6     2    1
     5     2     5    1
