@<TRIPOS>MOLECULE
1,9
 16 15 0 0 0
SMALL
GASTEIGER

@<TRIPOS>ATOM
      1 C           5.3125    4.7667    8.4714 C.3     1  UNL1       -0.0281
      2 H           5.1420    5.7427    7.9860 H       1  UNL1        0.0313
      3 H           5.6062    4.9748    9.5160 H       1  UNL1        0.0313
      4 C           6.4494    4.0383    7.8059 C.2     1  UNL1       -0.0733
      5 C           7.5832    4.8396    7.2115 C.3     1  UNL1       -0.0435
      6 H           8.5040    4.6677    7.7717 H       1  UNL1        0.0274
      7 H           7.3630    5.9050    7.2382 H       1  UNL1        0.0274
      8 H           7.7753    4.5532    6.1764 H       1  UNL1        0.0274
      9 C           5.3149    1.9659    8.4734 C.3     1  UNL1       -0.0281
     10 H           5.1462    0.9887    7.9897 H       1  UNL1        0.0313
     11 H           5.6090    1.7601    9.5184 H       1  UNL1        0.0313
     12 C           6.4505    2.6953    7.8067 C.2     1  UNL1       -0.0733
     13 C           7.5855    1.8950    7.2131 C.3     1  UNL1       -0.0435
     14 H           8.5062    2.0692    7.7728 H       1  UNL1        0.0274
     15 H           7.3671    0.8294    7.2413 H       1  UNL1        0.0274
     16 H           7.7768    2.1804    6.1775 H       1  UNL1        0.0274
@<TRIPOS>BOND
     1     8     5    1
     2    16    13    1
     3     5     7    1
     4     5     6    1
     5     5     4    1
     6    13    15    1
     7    13    14    1
     8    13    12    1
     9     4    12    2
    10     4     1    1
    11    12     9    1
    12     2     1    1
    13    10     9    1
    14     1     3    1
    15     9    11    1
