@<TRIPOS>MOLECULE
1,2
 6 5 0 0 0
SMALL
GASTEIGER

@<TRIPOS>ATOM
      1 C          -3.1766    8.2813    2.7521 C.3     1  UNL1       -0.0531
      2 C          -2.3690    7.3046    2.2519 C.3     1  UNL1       -0.0531
      3 H          -3.6864    8.9618    2.0798 H       1  UNL1        0.0265
      4 H          -3.6110    8.1635    3.7371 H       1  UNL1        0.0265
      5 H          -2.1756    6.4130    2.8327 H       1  UNL1        0.0265
      6 H          -2.2197    7.2158    1.1815 H       1  UNL1        0.0265
@<TRIPOS>BOND
     1     6     2    1
     2     3     1    1
     3     2     1    1
     4     2     5    1
     5     1     4    1
