@<TRIPOS>MOLECULE
3,5
 35 37 0 0 0
SMALL
GASTEIGER

@<TRIPOS>ATOM
      1 O           4.9230    5.1918   -0.2468 O.3     1  UNL1       -0.3428
      2 O           6.2770    6.4651    1.1059 O.3     1  UNL1       -0.3428
      3 C           4.2569    4.2493    5.1550 C.3     1  UNL1        0.0093
      4 H           4.6779    4.7279    6.0307 H       1  UNL1        0.0397
      5 C           3.0975    3.4210    5.1527 C.2     1  UNL1       -0.0758
      6 H           2.5392    3.1253    6.0321 H       1  UNL1        0.0578
      7 C           2.6697    3.2836    3.8216 C.2     1  UNL1       -0.0616
      8 H           1.7820    2.7663    3.4899 H       1  UNL1        0.0617
      9 C           3.5373    4.0189    2.9947 C.2     1  UNL1       -0.0421
     10 C           4.5176    4.6225    3.8087 C.2     1  UNL1       -0.0530
     11 C           5.6135    5.5465    3.3299 C.3     1  UNL1        0.0073
     12 H           5.6263    6.4581    3.9413 H       1  UNL1        0.0369
     13 C           5.2382    5.9243    1.8987 C.3     1  UNL1        0.0949
     14 H           4.4045    6.6425    1.9310 H       1  UNL1        0.0629
     15 C           4.8077    4.7092    1.0753 C.3     1  UNL1        0.0951
     16 H           5.5405    3.8939    1.2232 H       1  UNL1        0.0629
     17 C           3.4349    4.1990    1.4999 C.3     1  UNL1        0.0101
     18 H           3.2484    3.2379    1.0049 H       1  UNL1        0.0372
     19 C           2.2951    5.1447    1.1096 C.3     1  UNL1       -0.0559
     20 H           1.3395    4.6652    1.3067 H       1  UNL1        0.0236
     21 H           2.3628    5.3839    0.0508 H       1  UNL1        0.0236
     22 H           2.3342    6.0649    1.6869 H       1  UNL1        0.0236
     23 C           7.0128    4.9210    3.4143 C.3     1  UNL1       -0.0562
     24 H           7.0502    3.9663    2.8801 H       1  UNL1        0.0236
     25 H           7.2917    4.7599    4.4567 H       1  UNL1        0.0236
     26 H           7.7344    5.5963    2.9581 H       1  UNL1        0.0236
     27 C           5.9690    6.1564   -0.2485 C.3     1  UNL1        0.1654
     28 C           7.2280    5.5862   -0.9088 C.3     1  UNL1       -0.0108
     29 H           8.0296    6.3157   -0.8461 H       1  UNL1        0.0281
     30 H           7.0204    5.3512   -1.9482 H       1  UNL1        0.0281
     31 H           7.5325    4.6806   -0.3906 H       1  UNL1        0.0281
     32 C           5.4731    7.4022   -0.9878 C.3     1  UNL1       -0.0108
     33 H           4.6057    7.8073   -0.4734 H       1  UNL1        0.0281
     34 H           5.1894    7.1311   -2.0000 H       1  UNL1        0.0281
     35 H           6.2589    8.1511   -1.0100 H       1  UNL1        0.0281
@<TRIPOS>BOND
     1    34    32    1
     2    30    28    1
     3    35    32    1
     4    32    33    1
     5    32    27    1
     6    28    29    1
     7    28    31    1
     8    28    27    1
     9    27     1    1
    10    27     2    1
    11     1    15    1
    12    21    19    1
    13    18    17    1
    14    15    16    1
    15    15    17    1
    16    15    13    1
    17     2    13    1
    18    19    20    1
    19    19    17    1
    20    19    22    1
    21    17     9    1
    22    13    14    1
    23    13    11    1
    24    24    23    1
    25    26    23    1
    26     9    10    2
    27     9     7    1
    28    11    23    1
    29    11    10    1
    30    11    12    1
    31    23    25    1
    32     8     7    1
    33    10     3    1
    34     7     5    2
    35     5     3    1
    36     5     6    1
    37     3     4    1
