@<TRIPOS>MOLECULE
5,6
 32 31 0 0 0
SMALL
GASTEIGER

@<TRIPOS>ATOM
      1 SI         31.0968   10.8327    8.6142 Si      1  UNL1        0.0000
      2 SI         29.8964    4.7111    9.7079 Si      1  UNL1        0.0000
      3 C          30.7819    9.0243    9.0434 C.2     1  UNL1        0.0000
      4 H          31.3285    8.6002    9.8812 H       1  UNL1        0.0000
      5 C          29.9449    8.2193    8.4058 C.2     1  UNL1        0.0000
      6 C          29.3312    7.0482    8.1886 C.2     1  UNL1        0.0000
      7 C          29.0559    5.7732    8.3963 C.2     1  UNL1        0.0000
      8 H          28.3443    5.2674    7.7514 H       1  UNL1        0.0000
      9 C          32.9655   11.1576    8.8282 C.3     1  UNL1        0.0000
     10 H          33.5532   10.5009    8.1939 H       1  UNL1        0.0000
     11 H          33.2780   10.9930    9.8545 H       1  UNL1        0.0000
     12 H          33.2181   12.1811    8.5707 H       1  UNL1        0.0000
     13 C          30.1110   11.9811    9.7888 C.3     1  UNL1        0.0000
     14 H          30.2710   11.7199   10.8310 H       1  UNL1        0.0000
     15 H          29.0434   11.9293    9.5924 H       1  UNL1        0.0000
     16 H          30.4148   13.0164    9.6637 H       1  UNL1        0.0000
     17 C          30.5650   11.1839    6.8222 C.3     1  UNL1        0.0000
     18 H          29.6948   10.5593    6.5742 H       1  UNL1        0.0000
     19 H          31.3587   10.9419    6.1207 H       1  UNL1        0.0000
     20 H          30.2807   12.2204    6.6664 H       1  UNL1        0.0000
     21 C          30.8505    5.7966   10.9481 C.3     1  UNL1        0.0000
     22 H          30.2096    6.5827   11.3353 H       1  UNL1        0.0000
     23 H          31.7048    6.2705   10.4753 H       1  UNL1        0.0000
     24 H          31.2184    5.2177   11.7905 H       1  UNL1        0.0000
     25 C          28.5622    3.6938   10.6180 C.3     1  UNL1        0.0000
     26 H          27.8426    4.3426   11.1066 H       1  UNL1        0.0000
     27 H          29.0015    3.0520   11.3759 H       1  UNL1        0.0000
     28 H          28.0166    3.0573    9.9282 H       1  UNL1        0.0000
     29 C          31.0903    3.5020    8.8262 C.3     1  UNL1        0.0000
     30 H          31.9270    4.0239    8.3712 H       1  UNL1        0.0000
     31 H          30.5784    2.9623    8.0345 H       1  UNL1        0.0000
     32 H          31.4960    2.7682    9.5165 H       1  UNL1        0.0000
@<TRIPOS>BOND
     1    19    17    1
     2    18    17    1
     3    20    17    1
     4    17     1    1
     5     8     7    1
     6    31    29    1
     7     6     7    2
     8     6     5    1
     9    10     9    1
    10    30    29    1
    11     7     2    1
    12     5     3    2
    13    12     9    1
    14     1     9    1
    15     1     3    1
    16     1    13    1
    17    29    32    1
    18    29     2    1
    19     9    11    1
    20     3     4    1
    21    15    13    1
    22    16    13    1
    23     2    25    1
    24     2    21    1
    25    13    14    1
    26    28    25    1
    27    23    21    1
    28    25    26    1
    29    25    27    1
    30    21    22    1
    31    21    24    1
