@<TRIPOS>MOLECULE
3,6
 39 39 0 0 0
SMALL
GASTEIGER

@<TRIPOS>ATOM
      1 SI          0.2889    3.5854    3.4924 Si      1  UNL1        0.0000
      2 SI          5.0043    4.2828    8.1449 Si      1  UNL1        0.0000
      3 C           1.6532    3.8163    4.7640 C.2     1  UNL1        0.0000
      4 C           2.9522    3.5596    4.5060 C.2     1  UNL1        0.0000
      5 C           3.9985    3.7096    5.5396 C.2     1  UNL1        0.0000
      6 C           3.7077    4.1070    6.7956 C.2     1  UNL1        0.0000
      7 C           0.5658    4.4778    1.8193 C.3     1  UNL1        0.0000
      8 C          -1.3143    4.3190    4.2611 C.3     1  UNL1        0.0000
      9 C          -0.0510    1.7369    3.1073 C.3     1  UNL1        0.0000
     10 C           3.6156    3.0946    3.2297 C.3     1  UNL1        0.0000
     11 C           4.9520    2.5073    3.6926 C.3     1  UNL1        0.0000
     12 C           5.3273    3.3443    4.9188 C.3     1  UNL1        0.0000
     13 C           6.3659    5.5709    7.7445 C.3     1  UNL1        0.0000
     14 C           5.8825    2.6416    8.6096 C.3     1  UNL1        0.0000
     15 C           4.0802    4.8843    9.7217 C.3     1  UNL1        0.0000
     16 H           1.3346    3.9879    1.2314 H       1  UNL1        0.0000
     17 H           0.8763    5.5074    1.9683 H       1  UNL1        0.0000
     18 H          -0.3434    4.4903    1.2259 H       1  UNL1        0.0000
     19 H          -1.5760    5.2678    3.8039 H       1  UNL1        0.0000
     20 H          -1.2076    4.4868    5.3328 H       1  UNL1        0.0000
     21 H          -2.1595    3.6537    4.1152 H       1  UNL1        0.0000
     22 H          -0.1610    1.1549    4.0171 H       1  UNL1        0.0000
     23 H           0.7592    1.2943    2.5374 H       1  UNL1        0.0000
     24 H          -0.9605    1.6185    2.5263 H       1  UNL1        0.0000
     25 H           3.7849    3.9589    2.5819 H       1  UNL1        0.0000
     26 H           3.0061    2.3776    2.6828 H       1  UNL1        0.0000
     27 H           5.7150    2.5364    2.9149 H       1  UNL1        0.0000
     28 H           4.8080    1.4677    3.9925 H       1  UNL1        0.0000
     29 H           5.9767    2.8122    5.6109 H       1  UNL1        0.0000
     30 H           5.8383    4.2603    4.6100 H       1  UNL1        0.0000
     31 H           5.9352    6.5183    7.4353 H       1  UNL1        0.0000
     32 H           7.0065    5.2269    6.9395 H       1  UNL1        0.0000
     33 H           6.9963    5.7600    8.6080 H       1  UNL1        0.0000
     34 H           6.6521    2.3810    7.8906 H       1  UNL1        0.0000
     35 H           5.1804    1.8143    8.6485 H       1  UNL1        0.0000
     36 H           6.3594    2.7163    9.5821 H       1  UNL1        0.0000
     37 H           3.0324    5.1039    9.5161 H       1  UNL1        0.0000
     38 H           4.5320    5.7856   10.1238 H       1  UNL1        0.0000
     39 H           4.1110    4.1370   10.5081 H       1  UNL1        0.0000
@<TRIPOS>BOND
     1    18     7    1
     2    16     7    1
     3     7    17    1
     4     7     1    1
     5    24     9    1
     6    23     9    1
     7    25    10    1
     8    26    10    1
     9    27    11    1
    10     9     1    1
    11     9    22    1
    12    10    11    1
    13    10     4    1
    14     1     8    1
    15     1     3    1
    16    11    28    1
    17    11    12    1
    18    19     8    1
    19    21     8    1
    20     8    20    1
    21     4     3    2
    22     4     5    1
    23    30    12    1
    24    12     5    1
    25    12    29    1
    26     5     6    2
    27     6     2    1
    28    32    13    1
    29    31    13    1
    30    13     2    1
    31    13    33    1
    32    34    14    1
    33     2    14    1
    34     2    15    1
    35    14    35    1
    36    14    36    1
    37    37    15    1
    38    15    38    1
    39    15    39    1
