@<TRIPOS>MOLECULE
2,3
 35 35 0 0 0
SMALL
GASTEIGER

@<TRIPOS>ATOM
      1 SI          0.0399    0.5716    3.3228 Si      1  UNL1        0.0000
      2 C           1.4824    0.4179    2.1254 C.2     1  UNL1        0.0000
      3 C           2.0717   -0.5169    1.4400 C.2     1  UNL1        0.0000
      4 C           1.8784   -1.8926    1.0596 C.ar    1  UNL1        0.0000
      5 C           0.8934   -2.2423    0.1338 C.ar    1  UNL1        0.0000
      6 C           0.7204   -3.5646   -0.2280 C.ar    1  UNL1        0.0000
      7 C           1.5167   -4.5531    0.3288 C.ar    1  UNL1        0.0000
      8 C           2.4947   -4.2133    1.2504 C.ar    1  UNL1        0.0000
      9 C           2.6827   -2.8931    1.6115 C.ar    1  UNL1        0.0000
     10 C           0.6589   -0.2952    4.9439 C.3     1  UNL1        0.0000
     11 C           2.0876    0.1516    5.2639 C.3     1  UNL1        0.0000
     12 C           0.6537   -1.8149    4.7628 C.3     1  UNL1        0.0000
     13 C          -0.2468    0.0658    6.1226 C.3     1  UNL1        0.0000
     14 C          -1.4596   -0.3380    2.5656 C.3     1  UNL1        0.0000
     15 C          -0.3488    2.4215    3.5728 C.3     1  UNL1        0.0000
     16 H           0.2790   -1.4644   -0.2965 H       1  UNL1        0.0000
     17 H          -0.0428   -3.8282   -0.9459 H       1  UNL1        0.0000
     18 H           1.3753   -5.5855    0.0456 H       1  UNL1        0.0000
     19 H           3.1150   -4.9821    1.6874 H       1  UNL1        0.0000
     20 H           3.4461   -2.6187    2.3279 H       1  UNL1        0.0000
     21 H           2.4360   -0.3247    6.1802 H       1  UNL1        0.0000
     22 H           2.7718   -0.1198    4.4559 H       1  UNL1        0.0000
     23 H           2.1390    1.2293    5.4001 H       1  UNL1        0.0000
     24 H           1.0478   -2.3018    5.6545 H       1  UNL1        0.0000
     25 H          -0.3553   -2.1830    4.5941 H       1  UNL1        0.0000
     26 H           1.2710   -2.1039    3.9150 H       1  UNL1        0.0000
     27 H           0.0843   -0.4458    7.0259 H       1  UNL1        0.0000
     28 H          -0.2257    1.1357    6.3116 H       1  UNL1        0.0000
     29 H          -1.2752   -0.2279    5.9246 H       1  UNL1        0.0000
     30 H          -1.8237    0.1850    1.6874 H       1  UNL1        0.0000
     31 H          -1.2031   -1.3490    2.2664 H       1  UNL1        0.0000
     32 H          -2.2775   -0.3946    3.2761 H       1  UNL1        0.0000
     33 H          -0.5788    2.8903    2.6196 H       1  UNL1        0.0000
     34 H          -1.1967    2.5767    4.2325 H       1  UNL1        0.0000
     35 H           0.5069    2.9440    3.9904 H       1  UNL1        0.0000
@<TRIPOS>BOND
     1    17     6    1
     2    16     5    1
     3     6     5   ar
     4     6     7   ar
     5    18     7    1
     6     5     4   ar
     7     7     8   ar
     8     4     3    1
     9     4     9   ar
    10     8     9   ar
    11     8    19    1
    12     3     2    2
    13     9    20    1
    14    30    14    1
    15     2     1    1
    16    31    14    1
    17    14    32    1
    18    14     1    1
    19    33    15    1
    20     1    15    1
    21     1    10    1
    22    15    35    1
    23    15    34    1
    24    26    12    1
    25    22    11    1
    26    25    12    1
    27    12    10    1
    28    12    24    1
    29    10    11    1
    30    10    13    1
    31    11    23    1
    32    11    21    1
    33    29    13    1
    34    13    28    1
    35    13    27    1
