@<TRIPOS>MOLECULE
1,14
 16 16 0 0 0
SMALL
GASTEIGER

@<TRIPOS>ATOM
      1 C           5.6169    7.5022    5.3288 C.ar    1  UNL1       -0.0144
      2 C           6.6153    6.5689    5.6235 C.ar    1  UNL1       -0.0538
      3 H           6.6075    5.5918    5.1399 H       1  UNL1        0.0624
      4 C           7.6410    6.8334    6.5233 C.ar    1  UNL1       -0.0612
      5 H           8.3986    6.0861    6.7209 H       1  UNL1        0.0618
      6 C           7.6893    8.0537    7.1713 C.ar    1  UNL1       -0.0615
      7 H           8.4790    8.2644    7.8791 H       1  UNL1        0.0618
      8 C           6.7191    9.0063    6.9069 C.ar    1  UNL1       -0.0580
      9 H           6.7594    9.9632    7.4131 H       1  UNL1        0.0620
     10 C           5.7011    8.7437    5.9982 C.ar    1  UNL1       -0.0396
     11 C           4.6778    9.8135    5.6637 C.3     1  UNL1       -0.0271
     12 H           5.0814   10.4131    4.8362 H       1  UNL1        0.0313
     13 H           4.5762   10.4964    6.5224 H       1  UNL1        0.0313
     14 C           3.3187    9.2060    5.2520 C.3     1  UNL1       -0.0487
     15 H           2.7109    9.9918    4.7641 H       1  UNL1        0.0268
     16 H           2.7962    8.9506    6.1894 H       1  UNL1        0.0268
@<TRIPOS>BOND
     1    15    14    1
     2    12    11    1
     3     3     2    1
     4    14    11    1
     5    14    16    1
     6     1     2   ar
     7     1    10   ar
     8     2     4   ar
     9    11    10    1
    10    11    13    1
    11    10     8   ar
    12     4     5    1
    13     4     6   ar
    14     8     6   ar
    15     8     9    1
    16     6     7    1
