@<TRIPOS>MOLECULE
14
 36 39 0 0 0
SMALL
GASTEIGER

@<TRIPOS>ATOM
      1 C          -1.6715   13.8520   16.7831 C.2     1  UNL1       -0.0536
      2 C          -0.4867   13.8934   17.5525 C.2     1  UNL1       -0.0610
      3 C           0.0518   12.5854   17.6748 C.2     1  UNL1       -0.0574
      4 C          -0.8292   11.6884   16.9951 C.2     1  UNL1       -0.0319
      5 C          -0.8680   10.2806   16.8820 C.2     1  UNL1       -0.0574
      6 C          -1.9267    9.6967   16.2375 C.2     1  UNL1       -0.0617
      7 C          -2.9617   10.4671   15.6699 C.2     1  UNL1       -0.0645
      8 C          -2.9570   11.8369   15.7372 C.2     1  UNL1       -0.0682
      9 C          -1.8986   12.4862   16.4155 C.3     1  UNL1        0.0520
     10 C          -2.5311   15.0259   16.3990 C.3     1  UNL1       -0.0263
     11 C          -1.7505   16.0120   15.4953 C.3     1  UNL1       -0.0237
     12 C          -0.8482   15.2667   14.5495 C.2     1  UNL1       -0.0430
     13 C          -1.2429   14.2725   13.6255 C.2     1  UNL1       -0.0720
     14 C          -0.0981   13.7567   12.9552 C.3     1  UNL1        0.0136
     15 C           1.0381   14.4839   13.4320 C.ar    1  UNL1       -0.0323
     16 C           2.4000   14.4667   13.0687 C.ar    1  UNL1       -0.0574
     17 C           3.2608   15.3399   13.6859 C.ar    1  UNL1       -0.0614
     18 C           2.8149   16.2335   14.6797 C.ar    1  UNL1       -0.0612
     19 C           1.4995   16.2765   15.0710 C.ar    1  UNL1       -0.0541
     20 C           0.5721   15.4110   14.4472 C.ar    1  UNL1       -0.0184
     21 H          -0.1202   14.7676   18.0848 H       1  UNL1        0.0618
     22 H           0.8389   12.2896   18.3572 H       1  UNL1        0.0621
     23 H          -0.1015    9.6763   17.3468 H       1  UNL1        0.0621
     24 H          -1.9907    8.6215   16.1784 H       1  UNL1        0.0618
     25 H          -3.7833    9.9593   15.1891 H       1  UNL1        0.0615
     26 H          -3.7870   12.4063   15.3374 H       1  UNL1        0.0584
     27 H          -2.8773   15.5542   17.2914 H       1  UNL1        0.0314
     28 H          -3.4160   14.6641   15.8702 H       1  UNL1        0.0314
     29 H          -1.1492   16.6828   16.1148 H       1  UNL1        0.0316
     30 H          -2.4612   16.6311   14.9407 H       1  UNL1        0.0316
     31 H          -2.2713   14.0337   13.3684 H       1  UNL1        0.0581
     32 H          -0.1093   13.1404   12.0649 H       1  UNL1        0.0401
     33 H           2.7373   13.8112   12.2773 H       1  UNL1        0.0621
     34 H           4.2998   15.3658   13.3964 H       1  UNL1        0.0618
     35 H           3.5263   16.9110   15.1258 H       1  UNL1        0.0618
     36 H           1.1707   17.0033   15.8033 H       1  UNL1        0.0624
@<TRIPOS>BOND
     1    32    14    1
     2    33    16    1
     3    14    15    1
     4    14    13    1
     5    16    15   ar
     6    16    17   ar
     7    31    13    1
     8    34    17    1
     9    15    20   ar
    10    13    12    2
    11    17    18   ar
    12    20    12    1
    13    20    19   ar
    14    12    11    1
    15    18    19   ar
    16    18    35    1
    17    30    11    1
    18    19    36    1
    19    25     7    1
    20    26     8    1
    21    11    29    1
    22    11    10    1
    23     7     8    2
    24     7     6    1
    25     8     9    1
    26    28    10    1
    27    24     6    1
    28     6     5    2
    29    10     1    1
    30    10    27    1
    31     9     1    1
    32     9     4    1
    33     1     2    2
    34     5     4    1
    35     5    23    1
    36     4     3    2
    37     2     3    1
    38     2    21    1
    39     3    22    1
