@<TRIPOS>MOLECULE
2,3
 26 26 0 0 0
SMALL
GASTEIGER

@<TRIPOS>ATOM
      1 SI          5.8428   -1.0745    4.2947 Si      1  UNL1        0.0000
      2 C           5.2587    0.6361    3.8261 C.2     1  UNL1        0.0000
      3 C           5.5434    1.5933    3.0129 C.2     1  UNL1        0.0000
      4 C           6.3810    2.0215    1.9306 C.ar    1  UNL1        0.0000
      5 C           7.3003    1.1442    1.3453 C.ar    1  UNL1        0.0000
      6 C           8.0928    1.5606    0.2939 C.ar    1  UNL1        0.0000
      7 C           7.9884    2.8543   -0.1939 C.ar    1  UNL1        0.0000
      8 C           7.0839    3.7346    0.3798 C.ar    1  UNL1        0.0000
      9 C           6.2876    3.3241    1.4307 C.ar    1  UNL1        0.0000
     10 C           7.7111   -1.0699    4.7465 C.3     1  UNL1        0.0000
     11 C           5.6820   -2.3401    2.8564 C.3     1  UNL1        0.0000
     12 C           4.8253   -1.7453    5.7780 C.3     1  UNL1        0.0000
     13 H           7.3788    0.1380    1.7301 H       1  UNL1        0.0000
     14 H           8.7993    0.8743   -0.1515 H       1  UNL1        0.0000
     15 H           8.6099    3.1750   -1.0172 H       1  UNL1        0.0000
     16 H           7.0022    4.7441    0.0006 H       1  UNL1        0.0000
     17 H           5.5759    4.0024    1.8877 H       1  UNL1        0.0000
     18 H           8.2487   -0.2941    4.2092 H       1  UNL1        0.0000
     19 H           8.1722   -2.0201    4.4931 H       1  UNL1        0.0000
     20 H           7.8713   -0.9050    5.8073 H       1  UNL1        0.0000
     21 H           4.6486   -2.5714    2.6163 H       1  UNL1        0.0000
     22 H           6.1644   -3.2758    3.1260 H       1  UNL1        0.0000
     23 H           6.1548   -1.9810    1.9471 H       1  UNL1        0.0000
     24 H           4.1006   -1.0085    6.1171 H       1  UNL1        0.0000
     25 H           5.4631   -1.9945    6.6210 H       1  UNL1        0.0000
     26 H           4.2770   -2.6440    5.5119 H       1  UNL1        0.0000
@<TRIPOS>BOND
     1    15     7    1
     2     7     6   ar
     3     7     8   ar
     4    14     6    1
     5    16     8    1
     6     6     5   ar
     7     8     9   ar
     8     5    13    1
     9     5     4   ar
    10     9    17    1
    11     9     4   ar
    12     4     3    1
    13    23    11    1
    14    21    11    1
    15    11    22    1
    16    11     1    1
    17     3     2    2
    18     2     1    1
    19    18    10    1
    20     1    10    1
    21     1    12    1
    22    19    10    1
    23    10    20    1
    24    26    12    1
    25    12    24    1
    26    12    25    1
