@<TRIPOS>MOLECULE
2,3
 26 26 0 0 0
SMALL
GASTEIGER

@<TRIPOS>ATOM
      1 SI          6.3107    0.2752   -3.1652 Si      1  UNL1        0.0000
      2 C           5.8960    2.0889   -3.1096 C.2     1  UNL1        0.0000
      3 C           5.1445    3.0954   -3.3350 C.2     1  UNL1        0.0000
      4 C           3.9150    3.6254   -3.8443 C.ar    1  UNL1        0.0000
      5 C           2.9908    2.7909   -4.4808 C.ar    1  UNL1        0.0000
      6 C           1.8079    3.3093   -4.9702 C.ar    1  UNL1        0.0000
      7 C           1.5261    4.6600   -4.8338 C.ar    1  UNL1        0.0000
      8 C           2.4356    5.4962   -4.2047 C.ar    1  UNL1        0.0000
      9 C           3.6220    4.9866   -3.7139 C.ar    1  UNL1        0.0000
     10 C           6.7596   -0.2217   -4.9582 C.3     1  UNL1        0.0000
     11 C           4.8505   -0.7968   -2.5505 C.3     1  UNL1        0.0000
     12 C           7.8307    0.0330   -2.0215 C.3     1  UNL1        0.0000
     13 H           3.2204    1.7399   -4.5802 H       1  UNL1        0.0000
     14 H           1.0978    2.6591   -5.4607 H       1  UNL1        0.0000
     15 H           0.5991    5.0603   -5.2171 H       1  UNL1        0.0000
     16 H           2.2145    6.5488   -4.0990 H       1  UNL1        0.0000
     17 H           4.3424    5.6338   -3.2181 H       1  UNL1        0.0000
     18 H           5.9233   -0.0617   -5.6316 H       1  UNL1        0.0000
     19 H           7.0338   -1.2706   -5.0171 H       1  UNL1        0.0000
     20 H           7.5963    0.3610   -5.3315 H       1  UNL1        0.0000
     21 H           4.0168   -0.7652   -3.2445 H       1  UNL1        0.0000
     22 H           4.4862   -0.4538   -1.5869 H       1  UNL1        0.0000
     23 H           5.1483   -1.8352   -2.4410 H       1  UNL1        0.0000
     24 H           8.4676    0.9190   -2.0462 H       1  UNL1        0.0000
     25 H           8.4340   -0.8200   -2.3171 H       1  UNL1        0.0000
     26 H           7.5302   -0.1252   -0.9894 H       1  UNL1        0.0000
@<TRIPOS>BOND
     1    18    10    1
     2    14     6    1
     3    20    10    1
     4    15     7    1
     5    19    10    1
     6     6     7   ar
     7     6     5   ar
     8    10     1    1
     9     7     8   ar
    10    13     5    1
    11     5     4   ar
    12     8    16    1
    13     8     9   ar
    14     4     9   ar
    15     4     3    1
    16     9    17    1
    17     3     2    2
    18    21    11    1
    19     1     2    1
    20     1    11    1
    21     1    12    1
    22    11    23    1
    23    11    22    1
    24    25    12    1
    25    24    12    1
    26    12    26    1
