@<TRIPOS>MOLECULE
7,15
 41 41 0 0 0
SMALL
GASTEIGER

@<TRIPOS>ATOM
      1 S           2.3190    7.1730    2.6167 S.O2    1  UNL1        0.0000
      2 SI          3.1129    7.3248    6.2096 Si      1  UNL1        0.0000
      3 O           5.1473    4.4867    5.4892 O.2     1  UNL1        0.0000
      4 O           4.0303    2.8159    6.5075 O.3     1  UNL1        0.0000
      5 O           1.2974    6.8396    1.6437 O.2     1  UNL1        0.0000
      6 O           2.0945    8.3959    3.3592 O.2     1  UNL1        0.0000
      7 C           2.7588    4.4173    5.3801 C.3     1  UNL1        0.0000
      8 C           4.0954    3.9478    5.7654 C.2     1  UNL1        0.0000
      9 C           5.2674    2.2620    6.9417 C.3     1  UNL1        0.0000
     10 C           5.7783    2.9388    8.2065 C.3     1  UNL1        0.0000
     11 C           2.7462    5.8841    5.0356 C.2     1  UNL1        0.0000
     12 C           1.5467    8.3782    6.4892 C.3     1  UNL1        0.0000
     13 C           3.6083    6.5284    7.8755 C.3     1  UNL1        0.0000
     14 C           4.5531    8.3842    5.5539 C.3     1  UNL1        0.0000
     15 C           2.5104    5.8245    3.7360 C.2     1  UNL1        0.0000
     16 C           3.9166    7.8885    0.4975 C.ar    1  UNL1        0.0000
     17 C           5.1245    8.0051   -0.1713 C.ar    1  UNL1        0.0000
     18 C           6.2886    7.5457    0.4244 C.ar    1  UNL1        0.0000
     19 C           6.2503    6.9690    1.6845 C.ar    1  UNL1        0.0000
     20 C           5.0448    6.8509    2.3581 C.ar    1  UNL1        0.0000
     21 C           3.8923    7.3149    1.7534 C.ar    1  UNL1        0.0000
     22 H           2.0081    4.1007    6.1078 H       1  UNL1        0.0000
     23 H           6.0061    2.3652    6.1391 H       1  UNL1        0.0000
     24 H           5.0600    1.2041    7.1220 H       1  UNL1        0.0000
     25 H           6.6799    2.4398    8.5508 H       1  UNL1        0.0000
     26 H           6.0091    3.9802    7.9982 H       1  UNL1        0.0000
     27 H           5.0236    2.8935    8.9880 H       1  UNL1        0.0000
     28 H           1.7694    9.2257    7.1299 H       1  UNL1        0.0000
     29 H           1.1947    8.7634    5.5392 H       1  UNL1        0.0000
     30 H           0.7397    7.8197    6.9548 H       1  UNL1        0.0000
     31 H           3.7718    7.2846    8.6364 H       1  UNL1        0.0000
     32 H           2.8463    5.8496    8.2461 H       1  UNL1        0.0000
     33 H           4.5279    5.9638    7.7724 H       1  UNL1        0.0000
     34 H           4.7998    9.1823    6.2484 H       1  UNL1        0.0000
     35 H           5.4485    7.7885    5.4020 H       1  UNL1        0.0000
     36 H           4.2776    8.8384    4.6078 H       1  UNL1        0.0000
     37 H           2.9892    8.2242    0.0602 H       1  UNL1        0.0000
     38 H           5.1572    8.4502   -1.1546 H       1  UNL1        0.0000
     39 H           7.2300    7.6350   -0.0977 H       1  UNL1        0.0000
     40 H           7.1582    6.6073    2.1430 H       1  UNL1        0.0000
     41 H           4.9938    6.3913    3.3333 H       1  UNL1        0.0000
@<TRIPOS>BOND
     1    38    17    1
     2    17    18   ar
     3    17    16   ar
     4    39    18    1
     5    37    16    1
     6    18    19   ar
     7    16    21   ar
     8     5     1    2
     9    19    40    1
    10    19    20   ar
    11    21    20   ar
    12    21     1    1
    13    20    41    1
    14     1     6    2
    15     1    15    1
    16    15    11    2
    17    36    14    1
    18    11     7    1
    19    11     2    1
    20     7     8    1
    21     7    22    1
    22    35    14    1
    23     3     8    2
    24    29    12    1
    25    14     2    1
    26    14    34    1
    27     8     4    1
    28    23     9    1
    29     2    12    1
    30     2    13    1
    31    12    30    1
    32    12    28    1
    33     4     9    1
    34     9    24    1
    35     9    10    1
    36    33    13    1
    37    13    32    1
    38    13    31    1
    39    26    10    1
    40    10    25    1
    41    10    27    1
