@<TRIPOS>MOLECULE
1,2
 10 9 0 0 0
SMALL
GASTEIGER

@<TRIPOS>ATOM
      1 C           5.2985    5.1274    8.1677 C.2     1  UNL1       -0.0441
      2 C           6.3280    4.7923    8.8797 C.2     1  UNL1       -0.0441
      3 C           4.5422    6.2139    7.5151 C.3     1  UNL1       -0.0392
      4 C           7.5332    5.3341    9.5470 C.3     1  UNL1       -0.0392
      5 H           3.8695    6.6785    8.2370 H       1  UNL1        0.0278
      6 H           5.2245    6.9710    7.1259 H       1  UNL1        0.0278
      7 H           3.9395    5.8146    6.7005 H       1  UNL1        0.0278
      8 H           8.3949    5.2053    8.8933 H       1  UNL1        0.0278
      9 H           7.4079    6.3957    9.7579 H       1  UNL1        0.0278
     10 H           7.7264    4.8017   10.4747 H       1  UNL1        0.0278
@<TRIPOS>BOND
     1     7     3    1
     2     6     3    1
     3     3     1    1
     4     3     5    1
     5     1     2    2
     6     2     4    1
     7     8     4    1
     8     4     9    1
     9     4    10    1
