@<TRIPOS>MOLECULE
1,2
 10 9 0 0 0
SMALL
GASTEIGER

@<TRIPOS>ATOM
      1 C           6.1466    1.7533    7.0300 C.2     1  UNL1       -0.0441
      2 C           7.0007    1.9616    7.9811 C.2     1  UNL1       -0.0441
      3 C           5.8509    1.0876    5.7469 C.3     1  UNL1       -0.0392
      4 C           8.3648    1.6164    8.4407 C.3     1  UNL1       -0.0392
      5 H           5.5226    0.0637    5.9305 H       1  UNL1        0.0278
      6 H           6.7416    1.0672    5.1170 H       1  UNL1        0.0278
      7 H           5.0506    1.6131    5.2275 H       1  UNL1        0.0278
      8 H           9.0071    1.3952    7.5887 H       1  UNL1        0.0278
      9 H           8.7950    2.4324    9.0153 H       1  UNL1        0.0278
     10 H           8.3162    0.7350    9.0791 H       1  UNL1        0.0278
@<TRIPOS>BOND
     1     6     3    1
     2     7     3    1
     3     3     5    1
     4     3     1    1
     5     1     2    2
     6     8     4    1
     7     2     4    1
     8     4     9    1
     9     4    10    1
