@<TRIPOS>MOLECULE
1,2
 10 9 0 0 0
SMALL
GASTEIGER

@<TRIPOS>ATOM
      1 C           4.0791    2.2150   10.0137 C.2     1  UNL1       -0.0441
      2 C           5.2824    2.3925   10.4613 C.2     1  UNL1       -0.0441
      3 C           2.7048    1.7549   10.2950 C.3     1  UNL1       -0.0392
      4 C           6.1283    2.2460   11.6676 C.3     1  UNL1       -0.0392
      5 H           2.7244    0.7415   10.6985 H       1  UNL1        0.0278
      6 H           2.1124    1.7632    9.3811 H       1  UNL1        0.0278
      7 H           2.2340    2.4162   11.0237 H       1  UNL1        0.0278
      8 H           5.7513    1.4434   12.3009 H       1  UNL1        0.0278
      9 H           6.1091    3.1762   12.2341 H       1  UNL1        0.0278
     10 H           7.1577    2.0349   11.3905 H       1  UNL1        0.0278
@<TRIPOS>BOND
     1     6     3    1
     2     1     3    1
     3     1     2    2
     4     3     5    1
     5     3     7    1
     6     2     4    1
     7    10     4    1
     8     4     9    1
     9     4     8    1
