@<TRIPOS>MOLECULE
1,5
 25 25 0 0 0
SMALL
GASTEIGER

@<TRIPOS>ATOM
      1 C          10.5508    1.5726   -1.1656 C.3     1  UNL1        0.0231
      2 C          11.4015    0.4369   -1.3620 C.2     1  UNL1       -0.0584
      3 C          12.7180    0.8996   -1.5376 C.2     1  UNL1       -0.0477
      4 C          12.7049    2.3076   -1.4834 C.2     1  UNL1       -0.0477
      5 C          11.3760    2.7395   -1.2730 C.2     1  UNL1       -0.0584
      6 C           9.0611    1.5385   -1.3839 C.3     1  UNL1       -0.0510
      7 H           8.6246    2.5284   -1.2755 H       1  UNL1        0.0242
      8 H           8.5592    0.8691   -0.6840 H       1  UNL1        0.0242
      9 H           8.8414    1.1919   -2.3954 H       1  UNL1        0.0242
     10 C          10.9515   -0.9679   -1.6198 C.3     1  UNL1       -0.0424
     11 H          11.4252   -1.6783   -0.9423 H       1  UNL1        0.0275
     12 H          11.2185   -1.2520   -2.6398 H       1  UNL1        0.0275
     13 H           9.8731   -1.0609   -1.5214 H       1  UNL1        0.0275
     14 C          13.9079    0.0501   -1.8577 C.3     1  UNL1       -0.0395
     15 H          13.6734   -1.0045   -1.7401 H       1  UNL1        0.0278
     16 H          14.7580    0.2869   -1.2165 H       1  UNL1        0.0278
     17 H          14.2212    0.2140   -2.8905 H       1  UNL1        0.0278
     18 C          13.8644    3.2133   -1.7451 C.3     1  UNL1       -0.0395
     19 H          13.9096    4.0166   -1.0107 H       1  UNL1        0.0278
     20 H          13.7691    3.6706   -2.7323 H       1  UNL1        0.0278
     21 H          14.8029    2.6655   -1.7175 H       1  UNL1        0.0278
     22 C          10.9272    4.1504   -1.5058 C.3     1  UNL1       -0.0424
     23 H           9.9099    4.3219   -1.1654 H       1  UNL1        0.0275
     24 H          10.9621    4.3694   -2.5755 H       1  UNL1        0.0275
     25 H          11.5836    4.8623   -1.0064 H       1  UNL1        0.0275
@<TRIPOS>BOND
     1    17    14    1
     2    20    18    1
     3    12    10    1
     4    24    22    1
     5     9     6    1
     6    14    15    1
     7    14     3    1
     8    14    16    1
     9    18    21    1
    10    18     4    1
    11    18    19    1
    12    10    13    1
    13    10     2    1
    14    10    11    1
    15     3     4    1
    16     3     2    2
    17    22     5    1
    18    22    23    1
    19    22    25    1
    20     4     5    2
    21     6     7    1
    22     6     1    1
    23     6     8    1
    24     2     1    1
    25     5     1    1
