@<TRIPOS>MOLECULE
7,10
 106 113 0 0 0
SMALL
GASTEIGER

@<TRIPOS>ATOM
      1 SI          3.3096    4.4531    9.9998 Si      1  UNL1        0.0000
      2 SI          3.9764    2.4622    8.9155 Si      1  UNL1        0.0000
      3 SI          1.6462    5.7995    8.9751 Si      1  UNL1        0.0000
      4 SI          3.8283    4.2810   16.4410 Si      1  UNL1        0.0000
      5 SI          2.0363    5.2918   17.6035 Si      1  UNL1        0.0000
      6 SI          4.9850    2.4894   17.4811 Si      1  UNL1        0.0000
      7 C           3.2429    4.3050   11.8595 C.2     1  UNL1        0.0000
      8 C           2.4379    3.4574   12.5435 C.2     1  UNL1        0.0000
      9 C           2.5480    3.4286   14.0213 C.2     1  UNL1        0.0000
     10 C           3.5486    4.1333   14.6012 C.2     1  UNL1        0.0000
     11 C           1.4946    2.4964   11.9279 C.ar    1  UNL1        0.0000
     12 C           0.4637    2.9149   11.0937 C.ar    1  UNL1        0.0000
     13 H           0.3326    3.9689   10.9052 H       1  UNL1        0.0000
     14 C          -0.4082    1.9989   10.5345 C.ar    1  UNL1        0.0000
     15 H          -1.2145    2.3406    9.9008 H       1  UNL1        0.0000
     16 C          -0.2566    0.6464   10.7894 C.ar    1  UNL1        0.0000
     17 H          -0.9367   -0.0693   10.3513 H       1  UNL1        0.0000
     18 C           0.7705    0.2173   11.6141 C.ar    1  UNL1        0.0000
     19 H           0.8944   -0.8365   11.8175 H       1  UNL1        0.0000
     20 C           1.6326    1.1334   12.1846 C.ar    1  UNL1        0.0000
     21 H           2.4247    0.7930   12.8366 H       1  UNL1        0.0000
     22 C           1.5004    2.6793   14.7516 C.ar    1  UNL1        0.0000
     23 C           0.1595    3.0117   14.5666 C.ar    1  UNL1        0.0000
     24 H          -0.1008    3.8097   13.8855 H       1  UNL1        0.0000
     25 C          -0.8352    2.3339   15.2442 C.ar    1  UNL1        0.0000
     26 H          -1.8698    2.6076   15.0958 H       1  UNL1        0.0000
     27 C          -0.5107    1.2993   16.1064 C.ar    1  UNL1        0.0000
     28 H          -1.2893    0.7628   16.6286 H       1  UNL1        0.0000
     29 C           0.8177    0.9547   16.2907 C.ar    1  UNL1        0.0000
     30 H           1.0761    0.1408   16.9535 H       1  UNL1        0.0000
     31 C           1.8145    1.6432   15.6243 C.ar    1  UNL1        0.0000
     32 H           2.8471    1.3617   15.7590 H       1  UNL1        0.0000
     33 C           4.7900    1.2322   10.1404 C.3     1  UNL1        0.0000
     34 H           4.7418    0.2100    9.7746 H       1  UNL1        0.0000
     35 H           4.2760    1.2600   11.0971 H       1  UNL1        0.0000
     36 H           5.8348    1.4643   10.3234 H       1  UNL1        0.0000
     37 C           5.2427    2.8421    7.5293 C.3     1  UNL1        0.0000
     38 H           6.0842    3.4141    7.9080 H       1  UNL1        0.0000
     39 H           4.7864    3.4292    6.7382 H       1  UNL1        0.0000
     40 H           5.6360    1.9353    7.0785 H       1  UNL1        0.0000
     41 C           2.5044    1.5398    8.1226 C.3     1  UNL1        0.0000
     42 H           2.0155    2.1374    7.3608 H       1  UNL1        0.0000
     43 H           1.7587    1.2808    8.8674 H       1  UNL1        0.0000
     44 H           2.8290    0.6162    7.6514 H       1  UNL1        0.0000
     45 C           0.5868    4.8056    7.7311 C.3     1  UNL1        0.0000
     46 H          -0.2415    5.4008    7.3572 H       1  UNL1        0.0000
     47 H           0.1706    3.9097    8.1800 H       1  UNL1        0.0000
     48 H           1.1774    4.4990    6.8735 H       1  UNL1        0.0000
     49 C           0.4410    6.6089   10.2407 C.3     1  UNL1        0.0000
     50 H           0.4163    7.6902   10.1365 H       1  UNL1        0.0000
     51 H           0.7372    6.3926   11.2640 H       1  UNL1        0.0000
     52 H          -0.5764    6.2501   10.1110 H       1  UNL1        0.0000
     53 C           2.4485    7.2229    7.9754 C.3     1  UNL1        0.0000
     54 H           3.1690    6.8338    7.2625 H       1  UNL1        0.0000
     55 H           2.9809    7.9141    8.6212 H       1  UNL1        0.0000
     56 H           1.7102    7.7945    7.4193 H       1  UNL1        0.0000
     57 C           4.7923    5.6170    9.8762 C.1     1  UNL1        0.0000
     58 C           5.6636    6.3639    9.4821 C.1     1  UNL1        0.0000
     59 C           6.7104    7.2372    9.0962 C.ar    1  UNL1        0.0000
     60 C           7.9895    6.7359    8.8453 C.ar    1  UNL1        0.0000
     61 H           8.1735    5.6763    8.9527 H       1  UNL1        0.0000
     62 C           9.0065    7.5906    8.4670 C.ar    1  UNL1        0.0000
     63 H           9.9943    7.1972    8.2751 H       1  UNL1        0.0000
     64 C           8.7642    8.9489    8.3342 C.ar    1  UNL1        0.0000
     65 H           9.5622    9.6141    8.0388 H       1  UNL1        0.0000
     66 C           7.4966    9.4527    8.5805 C.ar    1  UNL1        0.0000
     67 H           7.3072   10.5114    8.4767 H       1  UNL1        0.0000
     68 C           6.4727    8.6064    8.9590 C.ar    1  UNL1        0.0000
     69 H           5.4827    8.9944    9.1520 H       1  UNL1        0.0000
     70 C           0.8500    6.2122   16.4119 C.3     1  UNL1        0.0000
     71 H           0.7229    5.6438   15.4949 H       1  UNL1        0.0000
     72 H           1.2220    7.1950   16.1387 H       1  UNL1        0.0000
     73 H          -0.1352    6.3465   16.8508 H       1  UNL1        0.0000
     74 C           0.9730    4.0150   18.5445 C.3     1  UNL1        0.0000
     75 H           0.1403    4.4956   19.0504 H       1  UNL1        0.0000
     76 H           1.5477    3.4863   19.2972 H       1  UNL1        0.0000
     77 H           0.5590    3.2757   17.8663 H       1  UNL1        0.0000
     78 C           2.6923    6.5598   18.8807 C.3     1  UNL1        0.0000
     79 H           1.8855    7.0999   19.3680 H       1  UNL1        0.0000
     80 H           3.3439    7.2916   18.4130 H       1  UNL1        0.0000
     81 H           3.2700    6.0656   19.6557 H       1  UNL1        0.0000
     82 C           3.9335    1.6488   18.8396 C.3     1  UNL1        0.0000
     83 H           2.9572    1.3529   18.4703 H       1  UNL1        0.0000
     84 H           3.7775    2.3168   19.6810 H       1  UNL1        0.0000
     85 H           4.4242    0.7577   19.2210 H       1  UNL1        0.0000
     86 C           6.5725    3.1181   18.3491 C.3     1  UNL1        0.0000
     87 H           7.0697    2.3289   18.9069 H       1  UNL1        0.0000
     88 H           6.3387    3.9170   19.0462 H       1  UNL1        0.0000
     89 H           7.2871    3.5168   17.6359 H       1  UNL1        0.0000
     90 C           5.5238    1.1199   16.2387 C.3     1  UNL1        0.0000
     91 H           5.0579    0.1653   16.4675 H       1  UNL1        0.0000
     92 H           6.5991    0.9646   16.2530 H       1  UNL1        0.0000
     93 H           5.2521    1.3817   15.2192 H       1  UNL1        0.0000
     94 C           5.1976    5.5817   16.4020 C.1     1  UNL1        0.0000
     95 C           6.0823    6.3579   16.6975 C.1     1  UNL1        0.0000
     96 C           7.1148    7.2901   16.9657 C.ar    1  UNL1        0.0000
     97 C           6.8126    8.6404   17.1556 C.ar    1  UNL1        0.0000
     98 H           5.7843    8.9669   17.0913 H       1  UNL1        0.0000
     99 C           7.8218    9.5456   17.4197 C.ar    1  UNL1        0.0000
    100 H           7.5823   10.5891   17.5650 H       1  UNL1        0.0000
    101 C           9.1388    9.1202   17.4979 C.ar    1  UNL1        0.0000
    102 H           9.9253    9.8309   17.7042 H       1  UNL1        0.0000
    103 C           9.4453    7.7812   17.3114 C.ar    1  UNL1        0.0000
    104 H          10.4718    7.4494   17.3727 H       1  UNL1        0.0000
    105 C           8.4434    6.8680   17.0471 C.ar    1  UNL1        0.0000
    106 H           8.6773    5.8231   16.9010 H       1  UNL1        0.0000
@<TRIPOS>BOND
     1    39    37    1
     2    48    45    1
     3    40    37    1
     4    54    53    1
     5    46    45    1
     6    42    41    1
     7    56    53    1
     8    37    38    1
     9    37     2    1
    10    44    41    1
    11    45    47    1
    12    45     3    1
    13    53    55    1
    14    53     3    1
    15    65    64    1
    16    41    43    1
    17    41     2    1
    18    63    62    1
    19    64    62   ar
    20    64    66   ar
    21    62    60   ar
    22    67    66    1
    23    66    68   ar
    24    60    61    1
    25    60    59   ar
    26     2     1    1
    27     2    33    1
    28    68    59   ar
    29    68    69    1
    30     3     1    1
    31     3    49    1
    32    59    58    1
    33    58    57    3
    34    34    33    1
    35    57     1    1
    36    15    14    1
    37     1     7    1
    38    52    49    1
    39    50    49    1
    40    33    36    1
    41    33    35    1
    42    49    51    1
    43    17    16    1
    44    14    16   ar
    45    14    12   ar
    46    16    18   ar
    47    13    12    1
    48    12    11   ar
    49    18    19    1
    50    18    20   ar
    51     7     8    2
    52    11    20   ar
    53    11     8    1
    54    20    21    1
    55     8     9    1
    56    24    23    1
    57     9    10    2
    58     9    22    1
    59    23    22   ar
    60    23    25   ar
    61    10     4    1
    62    22    31   ar
    63    26    25    1
    64    93    90    1
    65    25    27   ar
    66    71    70    1
    67    31    32    1
    68    31    29   ar
    69    27    29   ar
    70    27    28    1
    71    72    70    1
    72    90    92    1
    73    90    91    1
    74    90     6    1
    75    29    30    1
    76    94     4    1
    77    94    95    3
    78    70    73    1
    79    70     5    1
    80     4     6    1
    81     4     5    1
    82    95    96    1
    83   106   105    1
    84    96   105   ar
    85    96    97   ar
    86   105   103   ar
    87    98    97    1
    88    97    99   ar
    89   103   104    1
    90   103   101   ar
    91    99   101   ar
    92    99   100    1
    93     6    86    1
    94     6    82    1
    95   101   102    1
    96     5    74    1
    97     5    78    1
    98    89    86    1
    99    77    74    1
   100    86    87    1
   101    86    88    1
   102    80    78    1
   103    83    82    1
   104    74    75    1
   105    74    76    1
   106    82    85    1
   107    82    84    1
   108    78    79    1
   109    78    81    1
   110     1     8    0
   111     1    58    0
   112     4     9    0
   113     4    95    0
