@<TRIPOS>MOLECULE
3,38
 70 71 0 0 0
SMALL
GASTEIGER

@<TRIPOS>ATOM
      1 SI         11.2667    1.4284    2.1688 Si      1  UNL1        0.0000
      2 SI         13.4024    2.3175    2.6062 Si      1  UNL1        0.0000
      3 C          10.0398    1.5638    3.5803 C.2     1  UNL1        0.0000
      4 C           9.6401    2.7380    4.1273 C.2     1  UNL1        0.0000
      5 C          10.0274    4.0764    3.6162 C.ar    1  UNL1        0.0000
      6 C           9.5210    4.5376    2.4063 C.ar    1  UNL1        0.0000
      7 H           8.8481    3.9053    1.8457 H       1  UNL1        0.0000
      8 C           9.8529    5.7949    1.9365 C.ar    1  UNL1        0.0000
      9 H           9.4482    6.1437    0.9969 H       1  UNL1        0.0000
     10 C          10.6960    6.6111    2.6712 C.ar    1  UNL1        0.0000
     11 H          10.9549    7.5940    2.3054 H       1  UNL1        0.0000
     12 C          11.2004    6.1637    3.8811 C.ar    1  UNL1        0.0000
     13 H          11.8547    6.7984    4.4610 H       1  UNL1        0.0000
     14 C          10.8646    4.9086    4.3525 C.ar    1  UNL1        0.0000
     15 H          11.2500    4.5709    5.3033 H       1  UNL1        0.0000
     16 C          10.6851    2.1174    0.4645 C.3     1  UNL1        0.0000
     17 H           9.6481    1.8703    0.2520 H       1  UNL1        0.0000
     18 H          11.2901    1.7065   -0.3387 H       1  UNL1        0.0000
     19 H          10.7799    3.1969    0.4278 H       1  UNL1        0.0000
     20 C          11.4211   -0.4742    1.8176 C.3     1  UNL1        0.0000
     21 H          10.9033   -1.0791    2.5653 H       1  UNL1        0.0000
     22 H          12.4621   -0.7834    1.8065 H       1  UNL1        0.0000
     23 H          11.0144   -0.7306    0.8434 H       1  UNL1        0.0000
     24 C          13.7304    2.4874    4.4866 C.3     1  UNL1        0.0000
     25 H          14.5170    3.2079    4.6916 H       1  UNL1        0.0000
     26 H          14.0301    1.5442    4.9335 H       1  UNL1        0.0000
     27 H          12.8358    2.8228    5.0018 H       1  UNL1        0.0000
     28 C          13.6026    4.0480    1.8199 C.3     1  UNL1        0.0000
     29 H          12.8438    4.7317    2.1867 H       1  UNL1        0.0000
     30 H          13.5079    4.0041    0.7393 H       1  UNL1        0.0000
     31 H          14.5728    4.4822    2.0448 H       1  UNL1        0.0000
     32 C          14.8216    1.2279    1.9093 C.3     1  UNL1        0.0000
     33 H          14.7049    1.0635    0.8424 H       1  UNL1        0.0000
     34 H          14.8554    0.2533    2.3877 H       1  UNL1        0.0000
     35 H          15.7902    1.6955    2.0622 H       1  UNL1        0.0000
     36 SI          7.1279    1.4284    7.2770 Si      1  UNL1        0.0000
     37 SI          4.9918    2.3175    6.8393 Si      1  UNL1        0.0000
     38 C           8.3554    1.5638    5.8660 C.2     1  UNL1        0.0000
     39 C           8.7548    2.7380    5.3189 C.2     1  UNL1        0.0000
     40 C           8.3673    4.0763    5.8299 C.ar    1  UNL1        0.0000
     41 C           8.8737    4.5375    7.0399 C.ar    1  UNL1        0.0000
     42 H           9.5466    3.9053    7.6005 H       1  UNL1        0.0000
     43 C           8.5419    5.7948    7.5097 C.ar    1  UNL1        0.0000
     44 H           8.9466    6.1436    8.4492 H       1  UNL1        0.0000
     45 C           7.6988    6.6111    6.7750 C.ar    1  UNL1        0.0000
     46 H           7.4400    7.5940    7.1407 H       1  UNL1        0.0000
     47 C           7.1945    6.1637    5.5651 C.ar    1  UNL1        0.0000
     48 H           6.5403    6.7985    4.9851 H       1  UNL1        0.0000
     49 C           7.5301    4.9086    5.0937 C.ar    1  UNL1        0.0000
     50 H           7.1448    4.5709    4.1429 H       1  UNL1        0.0000
     51 C           7.7091    2.1175    8.9814 C.3     1  UNL1        0.0000
     52 H           8.7462    1.8706    9.1941 H       1  UNL1        0.0000
     53 H           7.1041    1.7066    9.7846 H       1  UNL1        0.0000
     54 H           7.6142    3.1969    9.0179 H       1  UNL1        0.0000
     55 C           6.9735   -0.4741    7.6285 C.3     1  UNL1        0.0000
     56 H           7.4916   -1.0790    6.8810 H       1  UNL1        0.0000
     57 H           5.9324   -0.7833    7.6391 H       1  UNL1        0.0000
     58 H           7.3797   -0.7306    8.6029 H       1  UNL1        0.0000
     59 C           4.6645    2.4876    4.9588 C.3     1  UNL1        0.0000
     60 H           3.8779    3.2080    4.7537 H       1  UNL1        0.0000
     61 H           4.3651    1.5443    4.5118 H       1  UNL1        0.0000
     62 H           5.5592    2.8231    4.4438 H       1  UNL1        0.0000
     63 C           4.7918    4.0480    7.6259 C.3     1  UNL1        0.0000
     64 H           5.5507    4.7317    7.2593 H       1  UNL1        0.0000
     65 H           4.8861    4.0039    8.7065 H       1  UNL1        0.0000
     66 H           3.8216    4.4823    7.4008 H       1  UNL1        0.0000
     67 C           3.5726    1.2276    7.5358 C.3     1  UNL1        0.0000
     68 H           3.6891    1.0631    8.6028 H       1  UNL1        0.0000
     69 H           3.5390    0.2530    7.0572 H       1  UNL1        0.0000
     70 H           2.6041    1.6952    7.3828 H       1  UNL1        0.0000
@<TRIPOS>BOND
     1    18    16    1
     2    17    16    1
     3    19    16    1
     4    16     1    1
     5    30    28    1
     6    33    32    1
     7    23    20    1
     8     9     8    1
     9    22    20    1
    10    20     1    1
    11    20    21    1
    12    28    31    1
    13    28    29    1
    14    28     2    1
    15     7     6    1
    16    32    35    1
    17    32    34    1
    18    32     2    1
    19     8     6   ar
    20     8    10   ar
    21     1     2    1
    22     1     3    1
    23    11    10    1
    24     6     5   ar
    25     2    24    1
    26    10    12   ar
    27     3     4    2
    28     5     4    1
    29     5    14   ar
    30    12    14   ar
    31    12    13    1
    32     4    39    1
    33    50    49    1
    34    14    15    1
    35    62    59    1
    36    24    25    1
    37    24    26    1
    38    24    27    1
    39    61    59    1
    40    60    59    1
    41    59    37    1
    42    48    47    1
    43    49    47   ar
    44    49    40   ar
    45    39    40    1
    46    39    38    2
    47    47    45   ar
    48    40    41   ar
    49    38    36    1
    50    45    46    1
    51    45    43   ar
    52    37    36    1
    53    37    67    1
    54    37    63    1
    55    56    55    1
    56    41    43   ar
    57    41    42    1
    58    69    67    1
    59    64    63    1
    60    36    55    1
    61    36    51    1
    62    70    67    1
    63    66    63    1
    64    43    44    1
    65    67    68    1
    66    63    65    1
    67    55    57    1
    68    55    58    1
    69    51    54    1
    70    51    52    1
    71    51    53    1
