@<TRIPOS>MOLECULE
5,7
 43 43 0 0 0
SMALL
GASTEIGER

@<TRIPOS>ATOM
      1 SI          1.4544    2.1003    3.6300 Si      1  UNL1        0.0000
      2 SI         -0.6816    1.0745    3.6007 Si      1  UNL1        0.0000
      3 SI          2.1661    2.8712    5.7510 Si      1  UNL1        0.0000
      4 SI          1.6754    3.7513    1.9438 Si      1  UNL1        0.0000
      5 C           2.8939    0.1608    1.9933 C.2     1  UNL1        0.0000
      6 H           2.4685    0.4200    1.0150 H       1  UNL1        0.0000
      7 C           2.6453    0.7155    3.1626 C.2     1  UNL1        0.0000
      8 C          -0.7622   -0.1530    2.1308 C.3     1  UNL1        0.0000
      9 H          -1.6183   -0.8205    2.1797 H       1  UNL1        0.0000
     10 H           0.1377   -0.7642    2.1190 H       1  UNL1        0.0000
     11 H          -0.8095    0.3743    1.1830 H       1  UNL1        0.0000
     12 C          -1.1291    0.0630    5.1670 C.3     1  UNL1        0.0000
     13 H          -0.9297    0.6289    6.0718 H       1  UNL1        0.0000
     14 H          -0.5539   -0.8559    5.2210 H       1  UNL1        0.0000
     15 H          -2.1809   -0.2112    5.1826 H       1  UNL1        0.0000
     16 C          -2.0827    2.3594    3.3722 C.3     1  UNL1        0.0000
     17 H          -1.9233    2.9664    2.4868 H       1  UNL1        0.0000
     18 H          -2.1307    3.0316    4.2228 H       1  UNL1        0.0000
     19 H          -3.0563    1.8877    3.2744 H       1  UNL1        0.0000
     20 C           3.0164    1.4362    6.6938 C.3     1  UNL1        0.0000
     21 H           3.7440    1.7796    7.4248 H       1  UNL1        0.0000
     22 H           3.5325    0.8003    5.9688 H       1  UNL1        0.0000
     23 H           2.2921    0.8210    7.2198 H       1  UNL1        0.0000
     24 C           3.4386    4.3038    5.6702 C.3     1  UNL1        0.0000
     25 H           3.0174    5.1666    5.1637 H       1  UNL1        0.0000
     26 H           4.3328    4.0154    5.1262 H       1  UNL1        0.0000
     27 H           3.7507    4.6298    6.6592 H       1  UNL1        0.0000
     28 C           0.7266    3.5219    6.8302 C.3     1  UNL1        0.0000
     29 H           1.0635    3.8401    7.8126 H       1  UNL1        0.0000
     30 H          -0.0372    2.7650    6.9767 H       1  UNL1        0.0000
     31 H           0.2501    4.3752    6.3582 H       1  UNL1        0.0000
     32 C           3.5388    3.9347    1.5339 C.3     1  UNL1        0.0000
     33 H           3.9983    2.9513    1.4623 H       1  UNL1        0.0000
     34 H           4.0582    4.4768    2.3179 H       1  UNL1        0.0000
     35 H           3.7211    4.4576    0.5988 H       1  UNL1        0.0000
     36 C           0.9959    5.4755    2.4207 C.3     1  UNL1        0.0000
     37 H           1.4740    5.8519    3.3190 H       1  UNL1        0.0000
     38 H          -0.0711    5.4322    2.6146 H       1  UNL1        0.0000
     39 H           1.1558    6.2075    1.6344 H       1  UNL1        0.0000
     40 C           0.7967    3.2633    0.3097 C.3     1  UNL1        0.0000
     41 H           0.9570    3.9940   -0.4791 H       1  UNL1        0.0000
     42 H          -0.2753    3.1703    0.4546 H       1  UNL1        0.0000
     43 H           1.1574    2.3066   -0.0550 H       1  UNL1        0.0000
@<TRIPOS>BOND
     1    41    40    1
     2    43    40    1
     3    40    42    1
     4    40     4    1
     5    35    32    1
     6     6     5    1
     7    11     8    1
     8    33    32    1
     9    32     4    1
    10    32    34    1
    11    39    36    1
    12     4    36    1
    13     4     1    1
    14     5     7    2
    15    10     8    1
    16     8     9    1
    17     8     2    1
    18    36    38    1
    19    36    37    1
    20    17    16    1
    21     7     1    1
    22    19    16    1
    23    16     2    1
    24    16    18    1
    25     2     1    1
    26     2    12    1
    27     1     3    1
    28    26    24    1
    29    25    24    1
    30    12    15    1
    31    12    14    1
    32    12    13    1
    33    24     3    1
    34    24    27    1
    35     3    20    1
    36     3    28    1
    37    22    20    1
    38    31    28    1
    39    20    23    1
    40    20    21    1
    41    28    30    1
    42    28    29    1
    43     1     5    0
