@<TRIPOS>MOLECULE
9,14
 86 87 0 0 0
SMALL
GASTEIGER

@<TRIPOS>ATOM
      1 SI          5.2045    6.3632    0.8182 Si      1  UNL1        0.0000
      2 SI          6.3288    4.3656    0.1480 Si      1  UNL1        0.0000
      3 SI          6.7319    7.8832    1.8573 Si      1  UNL1        0.0000
      4 SI          4.2707    7.3810   -1.1407 Si      1  UNL1        0.0000
      5 SI          0.2029    6.4387    5.2148 Si      1  UNL1        0.0000
      6 SI         -0.6482    4.4076    6.1038 Si      1  UNL1        0.0000
      7 SI         -1.5854    7.5914    4.1315 Si      1  UNL1        0.0000
      8 SI          1.1316    7.8279    6.9236 Si      1  UNL1        0.0000
      9 C           1.5845    6.1355    3.9695 C.2     1  UNL1        0.0000
     10 C           1.8406    7.1721    3.1289 C.2     1  UNL1        0.0000
     11 H           1.2486    8.0932    3.1343 H       1  UNL1        0.0000
     12 C           2.9312    7.1663    2.1700 C.2     1  UNL1        0.0000
     13 H           3.0135    8.0773    1.5690 H       1  UNL1        0.0000
     14 C           3.7954    6.1277    2.0457 C.2     1  UNL1        0.0000
     15 C           5.4111    3.3303   -1.1847 C.3     1  UNL1        0.0000
     16 H           6.0819    2.6304   -1.6763 H       1  UNL1        0.0000
     17 H           5.0008    3.9756   -1.9553 H       1  UNL1        0.0000
     18 H           4.5879    2.7546   -0.7745 H       1  UNL1        0.0000
     19 C           6.9549    3.0977    1.4471 C.3     1  UNL1        0.0000
     20 H           6.1426    2.6960    2.0437 H       1  UNL1        0.0000
     21 H           7.6671    3.5525    2.1291 H       1  UNL1        0.0000
     22 H           7.4580    2.2588    0.9715 H       1  UNL1        0.0000
     23 C           7.9348    4.9698   -0.7009 C.3     1  UNL1        0.0000
     24 H           8.5776    5.4944   -0.0009 H       1  UNL1        0.0000
     25 H           7.7166    5.6540   -1.5134 H       1  UNL1        0.0000
     26 H           8.5118    4.1480   -1.1155 H       1  UNL1        0.0000
     27 C           8.0519    7.1039    3.0153 C.3     1  UNL1        0.0000
     28 H           8.4938    6.2159    2.5725 H       1  UNL1        0.0000
     29 H           7.6338    6.8218    3.9767 H       1  UNL1        0.0000
     30 H           8.8628    7.8013    3.2090 H       1  UNL1        0.0000
     31 C           7.7270    8.8407    0.5302 C.3     1  UNL1        0.0000
     32 H           8.3745    9.5907    0.9756 H       1  UNL1        0.0000
     33 H           7.0746    9.3492   -0.1719 H       1  UNL1        0.0000
     34 H           8.3566    8.1679   -0.0429 H       1  UNL1        0.0000
     35 C           5.7806    9.1668    2.9139 C.3     1  UNL1        0.0000
     36 H           5.0494    8.6708    3.5470 H       1  UNL1        0.0000
     37 H           5.2372    9.8638    2.2839 H       1  UNL1        0.0000
     38 H           6.4356    9.7485    3.5569 H       1  UNL1        0.0000
     39 C           5.4076    7.2228   -2.6726 C.3     1  UNL1        0.0000
     40 H           4.9522    7.6626   -3.5554 H       1  UNL1        0.0000
     41 H           5.6290    6.1862   -2.9043 H       1  UNL1        0.0000
     42 H           6.3530    7.7301   -2.5093 H       1  UNL1        0.0000
     43 C           3.8953    9.2568   -0.9811 C.3     1  UNL1        0.0000
     44 H           3.6502    9.6999   -1.9434 H       1  UNL1        0.0000
     45 H           4.7477    9.7990   -0.5829 H       1  UNL1        0.0000
     46 H           3.0558    9.4416   -0.3181 H       1  UNL1        0.0000
     47 C           2.6018    6.5406   -1.5753 C.3     1  UNL1        0.0000
     48 H           1.9655    6.4819   -0.6960 H       1  UNL1        0.0000
     49 H           2.7499    5.5281   -1.9394 H       1  UNL1        0.0000
     50 H           2.0537    7.0822   -2.3418 H       1  UNL1        0.0000
     51 C           0.6934    3.0756    6.4268 C.3     1  UNL1        0.0000
     52 H           0.2731    2.0851    6.5838 H       1  UNL1        0.0000
     53 H           1.2769    3.3209    7.3095 H       1  UNL1        0.0000
     54 H           1.3769    3.0216    5.5787 H       1  UNL1        0.0000
     55 C          -2.0172    3.5848    5.0339 C.3     1  UNL1        0.0000
     56 H          -2.1406    2.5273    5.2547 H       1  UNL1        0.0000
     57 H          -1.8159    3.6768    3.9707 H       1  UNL1        0.0000
     58 H          -2.9746    4.0629    5.2157 H       1  UNL1        0.0000
     59 C          -1.4739    4.7443    7.7954 C.3     1  UNL1        0.0000
     60 H          -2.2758    5.4679    7.6916 H       1  UNL1        0.0000
     61 H          -0.7670    5.1475    8.5133 H       1  UNL1        0.0000
     62 H          -1.9024    3.8454    8.2293 H       1  UNL1        0.0000
     63 C          -1.9130    6.8140    2.4101 C.3     1  UNL1        0.0000
     64 H          -2.2511    5.7866    2.5024 H       1  UNL1        0.0000
     65 H          -1.0014    6.8054    1.8187 H       1  UNL1        0.0000
     66 H          -2.6660    7.3559    1.8442 H       1  UNL1        0.0000
     67 C          -1.2978    9.4642    3.8263 C.3     1  UNL1        0.0000
     68 H          -0.5353    9.6336    3.0722 H       1  UNL1        0.0000
     69 H          -0.9736    9.9680    4.7318 H       1  UNL1        0.0000
     70 H          -2.2036    9.9603    3.4862 H       1  UNL1        0.0000
     71 C          -3.2053    7.4734    5.1443 C.3     1  UNL1        0.0000
     72 H          -4.0292    7.9783    4.6485 H       1  UNL1        0.0000
     73 H          -3.0868    7.9279    6.1226 H       1  UNL1        0.0000
     74 H          -3.5016    6.4414    5.2984 H       1  UNL1        0.0000
     75 C          -0.2609    8.8287    7.7767 C.3     1  UNL1        0.0000
     76 H           0.1348    9.5395    8.4967 H       1  UNL1        0.0000
     77 H          -0.9367    8.1682    8.3108 H       1  UNL1        0.0000
     78 H          -0.8530    9.3870    7.0594 H       1  UNL1        0.0000
     79 C           2.3682    9.0641    6.1426 C.3     1  UNL1        0.0000
     80 H           1.8506    9.8023    5.5382 H       1  UNL1        0.0000
     81 H           3.0590    8.5404    5.4863 H       1  UNL1        0.0000
     82 H           2.9550    9.5999    6.8837 H       1  UNL1        0.0000
     83 C           2.0673    6.9633    8.3649 C.3     1  UNL1        0.0000
     84 H           2.0356    7.5684    9.2672 H       1  UNL1        0.0000
     85 H           3.1137    6.7948    8.1292 H       1  UNL1        0.0000
     86 H           1.6240    6.0026    8.6106 H       1  UNL1        0.0000
@<TRIPOS>BOND
     1    40    39    1
     2    41    39    1
     3    39    42    1
     4    39     4    1
     5    50    47    1
     6    17    15    1
     7    44    43    1
     8    49    47    1
     9    16    15    1
    10    47     4    1
    11    47    48    1
    12    25    23    1
    13    15    18    1
    14    15     2    1
    15     4    43    1
    16     4     1    1
    17    26    23    1
    18    43    45    1
    19    43    46    1
    20    23    24    1
    21    23     2    1
    22    33    31    1
    23    34    31    1
    24     2     1    1
    25     2    19    1
    26    31    32    1
    27    31     3    1
    28     1     3    1
    29     1    14    1
    30    22    19    1
    31    19    20    1
    32    19    21    1
    33    13    12    1
    34    65    63    1
    35    66    63    1
    36     3    35    1
    37     3    27    1
    38    14    12    2
    39    12    10    1
    40    37    35    1
    41    63    64    1
    42    63     7    1
    43    28    27    1
    44    35    36    1
    45    35    38    1
    46    27    30    1
    47    27    29    1
    48    68    67    1
    49    10    11    1
    50    10     9    2
    51    70    67    1
    52    67     7    1
    53    67    69    1
    54     9     5    1
    55    57    55    1
    56     7    71    1
    57     7     5    1
    58    72    71    1
    59    55    58    1
    60    55    56    1
    61    55     6    1
    62    71    74    1
    63    71    73    1
    64     5     6    1
    65     5     8    1
    66    81    79    1
    67    80    79    1
    68    54    51    1
    69     6    51    1
    70     6    59    1
    71    79    82    1
    72    79     8    1
    73    51    52    1
    74    51    53    1
    75     8    75    1
    76     8    83    1
    77    78    75    1
    78    60    59    1
    79    75    77    1
    80    75    76    1
    81    59    62    1
    82    59    61    1
    83    85    83    1
    84    83    86    1
    85    83    84    1
    86     1    12    0
    87     5    10    0
