@<TRIPOS>MOLECULE
4,5
 37 36 0 0 0
SMALL
GASTEIGER

@<TRIPOS>ATOM
      1 SI          6.2985    8.3444    0.2262 Si      1  UNL1        0.0000
      2 SI          7.5984    7.2007    1.8192 Si      1  UNL1        0.0000
      3 SI          2.6694    7.5432    1.7847 Si      1  UNL1        0.0000
      4 C           3.7138    9.1041    1.6185 C.2     1  UNL1        0.0000
      5 C           4.8648    9.2639    1.0221 C.2     1  UNL1        0.0000
      6 C           7.3704    9.6640   -0.6713 C.3     1  UNL1        0.0000
      7 H           6.8842   10.0309   -1.5708 H       1  UNL1        0.0000
      8 H           8.3294    9.2501   -0.9704 H       1  UNL1        0.0000
      9 H           7.5702   10.5183   -0.0313 H       1  UNL1        0.0000
     10 C           5.6813    7.2037   -1.1943 C.3     1  UNL1        0.0000
     11 H           5.0764    6.3820   -0.8272 H       1  UNL1        0.0000
     12 H           6.5210    6.7777   -1.7356 H       1  UNL1        0.0000
     13 H           5.0778    7.7539   -1.9105 H       1  UNL1        0.0000
     14 C           9.4167    7.8109    1.8093 C.3     1  UNL1        0.0000
     15 H           9.4762    8.8838    1.9666 H       1  UNL1        0.0000
     16 H           9.9026    7.5941    0.8626 H       1  UNL1        0.0000
     17 H          10.0022    7.3354    2.5914 H       1  UNL1        0.0000
     18 C           7.6676    5.3137    1.4949 C.3     1  UNL1        0.0000
     19 H           8.3698    4.8225    2.1628 H       1  UNL1        0.0000
     20 H           7.9818    5.0987    0.4780 H       1  UNL1        0.0000
     21 H           6.6991    4.8468    1.6423 H       1  UNL1        0.0000
     22 C           6.9381    7.4599    3.5984 C.3     1  UNL1        0.0000
     23 H           7.2429    6.6577    4.2644 H       1  UNL1        0.0000
     24 H           5.8534    7.5057    3.6063 H       1  UNL1        0.0000
     25 H           7.3019    8.3906    4.0221 H       1  UNL1        0.0000
     26 C           3.7158    5.9511    1.9724 C.3     1  UNL1        0.0000
     27 H           4.5607    5.9534    1.2943 H       1  UNL1        0.0000
     28 H           3.1228    5.0646    1.7653 H       1  UNL1        0.0000
     29 H           4.1084    5.8521    2.9794 H       1  UNL1        0.0000
     30 C           1.6376    7.3999    0.1769 C.3     1  UNL1        0.0000
     31 H           0.9913    8.2599    0.0295 H       1  UNL1        0.0000
     32 H           1.0079    6.5148    0.1846 H       1  UNL1        0.0000
     33 H           2.2904    7.3364   -0.6875 H       1  UNL1        0.0000
     34 C           1.4550    7.4571    3.2683 C.3     1  UNL1        0.0000
     35 H           1.9800    7.4770    4.2185 H       1  UNL1        0.0000
     36 H           0.9094    6.5184    3.2283 H       1  UNL1        0.0000
     37 H           0.7202    8.2536    3.2758 H       1  UNL1        0.0000
@<TRIPOS>BOND
     1    13    10    1
     2    12    10    1
     3     7     6    1
     4    10    11    1
     5    10     1    1
     6     8     6    1
     7    33    30    1
     8     6     9    1
     9     6     1    1
    10    31    30    1
    11    30    32    1
    12    30     3    1
    13     1     5    1
    14     1     2    1
    15    20    18    1
    16    16    14    1
    17     5     4    2
    18    27    26    1
    19    18    21    1
    20    18     2    1
    21    18    19    1
    22     4     3    1
    23    28    26    1
    24     3    26    1
    25     3    34    1
    26    14     2    1
    27    14    15    1
    28    14    17    1
    29     2    22    1
    30    26    29    1
    31    36    34    1
    32    34    37    1
    33    34    35    1
    34    22    24    1
    35    22    25    1
    36    22    23    1
