@<TRIPOS>MOLECULE
4,5
 37 36 0 0 0
SMALL
GASTEIGER

@<TRIPOS>ATOM
      1 SI          6.2453    3.0542    0.2002 Si      1  UNL1        0.0000
      2 SI          7.5326    1.9662    1.8368 Si      1  UNL1        0.0000
      3 SI          2.6673    2.2750    1.7719 Si      1  UNL1        0.0000
      4 C           3.6832    3.8489    1.6263 C.2     1  UNL1        0.0000
      5 C           4.8388    3.9836    1.0023 C.2     1  UNL1        0.0000
      6 C           7.2699    4.4393   -0.6707 C.3     1  UNL1        0.0000
      7 H           6.8496    4.6988   -1.6392 H       1  UNL1        0.0000
      8 H           8.2973    4.1301   -0.8418 H       1  UNL1        0.0000
      9 H           7.2927    5.3450   -0.0658 H       1  UNL1        0.0000
     10 C           5.7476    1.8866   -1.2499 C.3     1  UNL1        0.0000
     11 H           5.3745    0.9322   -0.8946 H       1  UNL1        0.0000
     12 H           6.5979    1.6855   -1.8953 H       1  UNL1        0.0000
     13 H           4.9680    2.3298   -1.8636 H       1  UNL1        0.0000
     14 C           9.3499    2.5806    1.8961 C.3     1  UNL1        0.0000
     15 H           9.4027    3.6571    2.0314 H       1  UNL1        0.0000
     16 H           9.8771    2.3432    0.9768 H       1  UNL1        0.0000
     17 H           9.9006    2.1228    2.7134 H       1  UNL1        0.0000
     18 C           7.6209    0.0668    1.6103 C.3     1  UNL1        0.0000
     19 H           8.2494   -0.3956    2.3666 H       1  UNL1        0.0000
     20 H           8.0313   -0.1967    0.6402 H       1  UNL1        0.0000
     21 H           6.6373   -0.3861    1.6822 H       1  UNL1        0.0000
     22 C           6.7714    2.3154    3.5659 C.3     1  UNL1        0.0000
     23 H           6.7032    1.4162    4.1710 H       1  UNL1        0.0000
     24 H           5.7677    2.7231    3.4617 H       1  UNL1        0.0000
     25 H           7.3595    3.0373    4.1251 H       1  UNL1        0.0000
     26 C           1.5778    2.1737    0.1931 C.3     1  UNL1        0.0000
     27 H           0.8671    2.9924    0.1261 H       1  UNL1        0.0000
     28 H           1.0114    1.2480    0.1590 H       1  UNL1        0.0000
     29 H           2.2012    2.2138   -0.6944 H       1  UNL1        0.0000
     30 C           1.4954    2.1547    3.2922 C.3     1  UNL1        0.0000
     31 H           2.0511    2.1476    4.2251 H       1  UNL1        0.0000
     32 H           0.9424    1.2209    3.2458 H       1  UNL1        0.0000
     33 H           0.7663    2.9553    3.3437 H       1  UNL1        0.0000
     34 C           3.6860    0.6554    1.8691 C.3     1  UNL1        0.0000
     35 H           4.3544    0.5681    1.0209 H       1  UNL1        0.0000
     36 H           3.0442   -0.2213    1.8792 H       1  UNL1        0.0000
     37 H           4.2950    0.6284    2.7667 H       1  UNL1        0.0000
@<TRIPOS>BOND
     1    12    10    1
     2    13    10    1
     3     7     6    1
     4    10    11    1
     5    10     1    1
     6     8     6    1
     7    29    26    1
     8     6     9    1
     9     6     1    1
    10    27    26    1
    11    28    26    1
    12    26     3    1
    13     1     5    1
    14     1     2    1
    15    20    18    1
    16    16    14    1
    17     5     4    2
    18    35    34    1
    19    18    21    1
    20    18     2    1
    21    18    19    1
    22     4     3    1
    23     3    34    1
    24     3    30    1
    25     2    14    1
    26     2    22    1
    27    34    36    1
    28    34    37    1
    29    14    15    1
    30    14    17    1
    31    32    30    1
    32    30    33    1
    33    30    31    1
    34    24    22    1
    35    22    25    1
    36    22    23    1
