@<TRIPOS>MOLECULE
6
 53 56 0 0 0
SMALL
GASTEIGER

@<TRIPOS>ATOM
      1 SI         -2.3456    3.3099    8.5414 Si      1  UNL1        0.0000
      2 SI         -1.4745    1.2277    9.1722 Si      1  UNL1        0.0000
      3 SI         -4.4329    4.2347    9.0671 Si      1  UNL1        0.0000
      4 C          -0.8436    4.6631    7.1323 C.2     1  UNL1        0.0000
      5 C          -1.9077    3.7134    6.7094 C.2     1  UNL1        0.0000
      6 C          -2.1107    3.5941    5.3713 C.2     1  UNL1        0.0000
      7 C          -3.1037    2.7701    4.7092 C.ar    1  UNL1        0.0000
      8 C          -3.9668    1.8966    5.3833 C.ar    1  UNL1        0.0000
      9 H          -3.8965    1.8227    6.4589 H       1  UNL1        0.0000
     10 C          -4.8888    1.1414    4.6880 C.ar    1  UNL1        0.0000
     11 H          -5.5467    0.4702    5.2224 H       1  UNL1        0.0000
     12 C          -4.9784    1.2358    3.3071 C.ar    1  UNL1        0.0000
     13 H          -5.7016    0.6423    2.7676 H       1  UNL1        0.0000
     14 C          -4.1344    2.0968    2.6217 C.ar    1  UNL1        0.0000
     15 H          -4.2036    2.1729    1.5455 H       1  UNL1        0.0000
     16 C          -3.2091    2.8531    3.3121 C.ar    1  UNL1        0.0000
     17 H          -2.5417    3.5353    2.7820 H       1  UNL1        0.0000
     18 C          -0.9276    4.6114    8.4949 C.2     1  UNL1        0.0000
     19 C          -0.1190    5.3398    9.4336 C.ar    1  UNL1        0.0000
     20 C           0.8763    6.2159    8.9792 C.ar    1  UNL1        0.0000
     21 H           1.0109    6.3257    7.9024 H       1  UNL1        0.0000
     22 C           1.6617    6.9138    9.8718 C.ar    1  UNL1        0.0000
     23 H           2.4273    7.5865    9.5102 H       1  UNL1        0.0000
     24 C           1.4747    6.7558   11.2380 C.ar    1  UNL1        0.0000
     25 H           2.0911    7.3031   11.9360 H       1  UNL1        0.0000
     26 C           0.4947    5.8921   11.7022 C.ar    1  UNL1        0.0000
     27 H           0.3494    5.7678   12.7663 H       1  UNL1        0.0000
     28 C          -0.2941    5.1909   10.8120 C.ar    1  UNL1        0.0000
     29 H          -1.0594    4.5149   11.1690 H       1  UNL1        0.0000
     30 C          -2.0620   -0.1858    8.0207 C.3     1  UNL1        0.0000
     31 H          -1.8579    0.0457    6.9794 H       1  UNL1        0.0000
     32 H          -3.1315   -0.3488    8.1146 H       1  UNL1        0.0000
     33 H          -1.5697   -1.1266    8.2516 H       1  UNL1        0.0000
     34 C          -1.9796    0.7715   10.9597 C.3     1  UNL1        0.0000
     35 H          -1.5661   -0.1862   11.2608 H       1  UNL1        0.0000
     36 H          -3.0589    0.7046   11.0574 H       1  UNL1        0.0000
     37 H          -1.6323    1.5138   11.6714 H       1  UNL1        0.0000
     38 C           0.4372    1.3090    9.0793 C.3     1  UNL1        0.0000
     39 H           0.9101    0.3427    9.2323 H       1  UNL1        0.0000
     40 H           0.8309    1.9923    9.8260 H       1  UNL1        0.0000
     41 H           0.7496    1.6828    8.1076 H       1  UNL1        0.0000
     42 C          -4.4846    4.9755   10.8310 C.3     1  UNL1        0.0000
     43 H          -5.4308    5.4693   11.0342 H       1  UNL1        0.0000
     44 H          -3.6954    5.7074   10.9734 H       1  UNL1        0.0000
     45 H          -4.3543    4.2021   11.5822 H       1  UNL1        0.0000
     46 C          -5.8213    2.9230    8.9461 C.3     1  UNL1        0.0000
     47 H          -6.7809    3.3280    9.2539 H       1  UNL1        0.0000
     48 H          -5.6109    2.0687    9.5829 H       1  UNL1        0.0000
     49 H          -5.9333    2.5568    7.9305 H       1  UNL1        0.0000
     50 C          -4.8136    5.6288    7.8083 C.3     1  UNL1        0.0000
     51 H          -4.5469    5.3095    6.8032 H       1  UNL1        0.0000
     52 H          -4.2286    6.5162    8.0318 H       1  UNL1        0.0000
     53 H          -5.8609    5.9179    7.7996 H       1  UNL1        0.0000
@<TRIPOS>BOND
     1    15    14    1
     2    14    12   ar
     3    14    16   ar
     4    13    12    1
     5    17    16    1
     6    12    10   ar
     7    16     7   ar
     8    10    11    1
     9    10     8   ar
    10     7     6    1
    11     7     8   ar
    12     6     5    2
    13     8     9    1
    14     5     4    1
    15     5     1    1
    16    51    50    1
    17    31    30    1
    18     4    18    2
    19    53    50    1
    20    50    52    1
    21    50     3    1
    22    21    20    1
    23    49    46    1
    24    30    32    1
    25    30    33    1
    26    30     2    1
    27    41    38    1
    28    18     1    1
    29    18    19    1
    30     1     3    1
    31     1     2    1
    32    46     3    1
    33    46    47    1
    34    46    48    1
    35    20    19   ar
    36    20    22   ar
    37     3    42    1
    38    38     2    1
    39    38    39    1
    40    38    40    1
    41     2    34    1
    42    19    28   ar
    43    23    22    1
    44    22    24   ar
    45    28    29    1
    46    28    26   ar
    47    42    44    1
    48    42    43    1
    49    42    45    1
    50    34    36    1
    51    34    35    1
    52    34    37    1
    53    24    26   ar
    54    24    25    1
    55    26    27    1
    56     1     4    0
