@<TRIPOS>MOLECULE
1,2
 24 25 0 0 0
SMALL
GASTEIGER

@<TRIPOS>ATOM
      1 C          -0.2708   10.1649    9.7017 C.2     1  UNL1       -0.0013
      2 C          -1.0559   11.2116    9.4064 C.2     1  UNL1       -0.0013
      3 C          -0.0470    9.5619   11.0059 C.ar    1  UNL1       -0.0167
      4 C          -1.1263    9.3016   11.8636 C.ar    1  UNL1       -0.0540
      5 C          -0.9309    8.6802   13.0796 C.ar    1  UNL1       -0.0612
      6 C           0.3427    8.3089   13.4830 C.ar    1  UNL1       -0.0617
      7 C           1.4226    8.5755   12.6569 C.ar    1  UNL1       -0.0612
      8 C           1.2313    9.1862   11.4335 C.ar    1  UNL1       -0.0540
      9 C          -1.7372   12.1171   10.3177 C.ar    1  UNL1       -0.0167
     10 C          -3.1322   12.2509   10.2992 C.ar    1  UNL1       -0.0540
     11 C          -3.7675   13.1414   11.1405 C.ar    1  UNL1       -0.0612
     12 C          -3.0333   13.9294   12.0135 C.ar    1  UNL1       -0.0617
     13 C          -1.6544   13.7990   12.0540 C.ar    1  UNL1       -0.0612
     14 C          -1.0128   12.9025   11.2233 C.ar    1  UNL1       -0.0540
     15 H          -2.1196    9.6054   11.5612 H       1  UNL1        0.0624
     16 H          -1.7773    8.4893   13.7247 H       1  UNL1        0.0618
     17 H           0.4930    7.8234   14.4360 H       1  UNL1        0.0618
     18 H           2.4213    8.3023   12.9698 H       1  UNL1        0.0618
     19 H           2.0826    9.3964   10.7998 H       1  UNL1        0.0624
     20 H          -3.7138   11.6335    9.6242 H       1  UNL1        0.0624
     21 H          -4.8451   13.2247   11.1157 H       1  UNL1        0.0618
     22 H          -3.5327   14.6321   12.6640 H       1  UNL1        0.0618
     23 H          -1.0757   14.3965   12.7451 H       1  UNL1        0.0618
     24 H           0.0629   12.7873   11.2762 H       1  UNL1        0.0624
@<TRIPOS>BOND
     1     2     1    2
     2     2     9    1
     3    20    10    1
     4     1     3    1
     5    10     9   ar
     6    10    11   ar
     7     9    14   ar
     8    19     8    1
     9     3     8   ar
    10     3     4   ar
    11    21    11    1
    12    11    12   ar
    13    14    24    1
    14    14    13   ar
    15     8     7   ar
    16    15     4    1
    17     4     5   ar
    18    12    13   ar
    19    12    22    1
    20    13    23    1
    21     7    18    1
    22     7     6   ar
    23     5     6   ar
    24     5    16    1
    25     6    17    1
