@<TRIPOS>MOLECULE
1,2
 6 5 0 0 0
SMALL
GASTEIGER

@<TRIPOS>ATOM
      1 C           1.8560    2.1407    6.6967 C.3     1  UNL1       -0.0531
      2 C           0.6552    1.3260    6.3803 C.3     1  UNL1       -0.0531
      3 H           1.6536    3.1048    7.1815 H       1  UNL1        0.0265
      4 H           2.6496    1.5864    7.2172 H       1  UNL1        0.0265
      5 H          -0.3051    1.7770    6.6643 H       1  UNL1        0.0265
      6 H           0.7232    0.2802    6.7114 H       1  UNL1        0.0265
@<TRIPOS>BOND
     1     2     5    1
     2     2     1    1
     3     2     6    1
     4     1     3    1
     5     1     4    1
