@<TRIPOS>MOLECULE
3,4
 28 27 0 0 0
SMALL
GASTEIGER

@<TRIPOS>ATOM
      1 SI          6.9905    3.4030   -1.5475 Si      1  UNL1        0.0000
      2 SI          6.7420    7.1133   -0.6536 Si      1  UNL1        0.0000
      3 C           7.5171    4.3279    0.0112 C.2     1  UNL1        0.0000
      4 C           7.4512    5.6359    0.2798 C.2     1  UNL1        0.0000
      5 C           7.4459    1.5371   -1.6111 C.3     1  UNL1        0.0000
      6 H           7.2714    1.1665   -2.6177 H       1  UNL1        0.0000
      7 H           6.8301    0.9479   -0.9414 H       1  UNL1        0.0000
      8 H           8.4838    1.3368   -1.3726 H       1  UNL1        0.0000
      9 C           7.8836    4.1558   -3.0797 C.3     1  UNL1        0.0000
     10 H           7.3701    3.8970   -4.0012 H       1  UNL1        0.0000
     11 H           8.9027    3.7893   -3.1680 H       1  UNL1        0.0000
     12 H           7.9289    5.2382   -3.0196 H       1  UNL1        0.0000
     13 C           5.0955    3.4062   -1.8929 C.3     1  UNL1        0.0000
     14 H           4.6894    2.3993   -1.8577 H       1  UNL1        0.0000
     15 H           4.8748    3.8079   -2.8765 H       1  UNL1        0.0000
     16 H           4.5503    4.0063   -1.1722 H       1  UNL1        0.0000
     17 C           8.0881    8.1456   -1.5661 C.3     1  UNL1        0.0000
     18 H           7.6136    8.9288   -2.1504 H       1  UNL1        0.0000
     19 H           8.6777    7.5442   -2.2498 H       1  UNL1        0.0000
     20 H           8.7726    8.6324   -0.8782 H       1  UNL1        0.0000
     21 C           5.8816    8.3878    0.5032 C.3     1  UNL1        0.0000
     22 H           4.9318    8.0160    0.8769 H       1  UNL1        0.0000
     23 H           5.6654    9.2923   -0.0582 H       1  UNL1        0.0000
     24 H           6.4890    8.6763    1.3528 H       1  UNL1        0.0000
     25 C           5.3930    6.8141   -1.9884 C.3     1  UNL1        0.0000
     26 H           5.0896    7.7531   -2.4443 H       1  UNL1        0.0000
     27 H           4.5052    6.3618   -1.5591 H       1  UNL1        0.0000
     28 H           5.7405    6.1621   -2.7805 H       1  UNL1        0.0000
@<TRIPOS>BOND
     1    10     9    1
     2    11     9    1
     3     9    12    1
     4     9     1    1
     5    15    13    1
     6    28    25    1
     7     6     5    1
     8    26    25    1
     9    19    17    1
    10    18    17    1
    11    25    27    1
    12    25     2    1
    13    13    14    1
    14    13     1    1
    15    13    16    1
    16     5     1    1
    17     5     8    1
    18     5     7    1
    19    17    20    1
    20    17     2    1
    21     1     3    1
    22     2     4    1
    23     2    21    1
    24    23    21    1
    25     3     4    2
    26    21    22    1
    27    21    24    1
