@<TRIPOS>MOLECULE
5,6
 42 41 0 0 0
SMALL
GASTEIGER

@<TRIPOS>ATOM
      1 S           4.1664    2.5575   -0.2571 S.3     1  UNL1        0.0000
      2 S           5.7690    0.0882    2.2516 S.3     1  UNL1        0.0000
      3 SI          4.4750   -1.8127   -1.5399 Si      1  UNL1        0.0000
      4 SI          6.8825   -2.1785    6.0207 Si      1  UNL1        0.0000
      5 C           4.2909    2.3363    1.4266 C.2     1  UNL1        0.0000
      6 C           4.8157    1.5033    2.3228 C.2     1  UNL1        0.0000
      7 C           4.8194    0.9708   -0.9304 C.3     1  UNL1        0.0000
      8 H           5.0039    1.1961   -1.9792 H       1  UNL1        0.0000
      9 H           5.7620    0.7752   -0.4236 H       1  UNL1        0.0000
     10 C           3.8412   -0.1638   -0.7653 C.3     1  UNL1        0.0000
     11 H           2.8880    0.1129   -1.2188 H       1  UNL1        0.0000
     12 H           3.6568   -0.3233    0.2979 H       1  UNL1        0.0000
     13 C           4.7185   -1.5594   -3.4108 C.3     1  UNL1        0.0000
     14 H           5.5225   -0.8604   -3.6225 H       1  UNL1        0.0000
     15 H           3.8182   -1.1804   -3.8859 H       1  UNL1        0.0000
     16 H           4.9707   -2.4966   -3.8965 H       1  UNL1        0.0000
     17 C           3.1306   -3.1179   -1.1932 C.3     1  UNL1        0.0000
     18 H           3.4038   -4.0733   -1.6288 H       1  UNL1        0.0000
     19 H           2.1726   -2.8308   -1.6164 H       1  UNL1        0.0000
     20 H           2.9886   -3.2759   -0.1281 H       1  UNL1        0.0000
     21 C           6.1131   -2.2949   -0.6959 C.3     1  UNL1        0.0000
     22 H           6.0153   -2.3124    0.3856 H       1  UNL1        0.0000
     23 H           6.9109   -1.6001   -0.9414 H       1  UNL1        0.0000
     24 H           6.4352   -3.2820   -1.0119 H       1  UNL1        0.0000
     25 C           6.1999   -0.2855    4.0002 C.3     1  UNL1        0.0000
     26 H           7.1569    0.2009    4.1855 H       1  UNL1        0.0000
     27 H           5.4307    0.1758    4.6194 H       1  UNL1        0.0000
     28 C           6.2889   -1.7731    4.2329 C.3     1  UNL1        0.0000
     29 H           6.9856   -2.2087    3.5147 H       1  UNL1        0.0000
     30 H           5.3153   -2.2294    4.0468 H       1  UNL1        0.0000
     31 C           5.5679   -1.5500    7.2491 C.3     1  UNL1        0.0000
     32 H           5.4739   -0.4684    7.2089 H       1  UNL1        0.0000
     33 H           5.8302   -1.8161    8.2679 H       1  UNL1        0.0000
     34 H           4.5897   -1.9734    7.0421 H       1  UNL1        0.0000
     35 C           8.5305   -1.2749    6.3411 C.3     1  UNL1        0.0000
     36 H           8.3898   -0.1991    6.4062 H       1  UNL1        0.0000
     37 H           9.2557   -1.4692    5.5564 H       1  UNL1        0.0000
     38 H           8.9735   -1.5998    7.2773 H       1  UNL1        0.0000
     39 C           7.0935   -4.0642    6.1482 C.3     1  UNL1        0.0000
     40 H           7.4106   -4.3503    7.1457 H       1  UNL1        0.0000
     41 H           7.8412   -4.4313    5.4520 H       1  UNL1        0.0000
     42 H           6.1655   -4.5870    5.9386 H       1  UNL1        0.0000
@<TRIPOS>BOND
     1    16    13    1
     2    15    13    1
     3    14    13    1
     4    13     3    1
     5     8     7    1
     6    18    17    1
     7    19    17    1
     8     3    17    1
     9     3    10    1
    10     3    21    1
    11    11    10    1
    12    17    20    1
    13    24    21    1
    14    23    21    1
    15     7    10    1
    16     7     9    1
    17     7     1    1
    18    10    12    1
    19    21    22    1
    20     1     5    1
    21     5     6    2
    22     2     6    1
    23     2    25    1
    24    29    28    1
    25    25    26    1
    26    25    28    1
    27    25    27    1
    28    30    28    1
    29    28     4    1
    30    41    39    1
    31    37    35    1
    32    42    39    1
    33     4    39    1
    34     4    35    1
    35     4    31    1
    36    39    40    1
    37    35    36    1
    38    35    38    1
    39    34    31    1
    40    32    31    1
    41    31    33    1
