@<TRIPOS>MOLECULE
3,4
 28 27 0 0 0
SMALL
GASTEIGER

@<TRIPOS>ATOM
      1 SI         -0.1265    2.6861   -5.8605 Si      1  UNL1        0.0000
      2 SI         -0.7695    0.1794   -9.5493 Si      1  UNL1        0.0000
      3 C           0.0861    1.0797   -6.7923 C.2     1  UNL1        0.0000
      4 C          -0.0941    0.3788   -7.8178 C.2     1  UNL1        0.0000
      5 C          -1.8607    2.6190   -5.0727 C.3     1  UNL1        0.0000
      6 H          -2.0807    3.5163   -4.5017 H       1  UNL1        0.0000
      7 H          -1.9426    1.7697   -4.4007 H       1  UNL1        0.0000
      8 H          -2.6310    2.5099   -5.8301 H       1  UNL1        0.0000
      9 C           1.1941    2.9184   -4.5038 C.3     1  UNL1        0.0000
     10 H           0.9205    3.7271   -3.8319 H       1  UNL1        0.0000
     11 H           2.1699    3.1560   -4.9171 H       1  UNL1        0.0000
     12 H           1.2965    2.0193   -3.9045 H       1  UNL1        0.0000
     13 C          -0.0025    4.1105   -7.1259 C.3     1  UNL1        0.0000
     14 H          -0.0853    5.0760   -6.6360 H       1  UNL1        0.0000
     15 H          -0.7953    4.0459   -7.8637 H       1  UNL1        0.0000
     16 H           0.9428    4.0914   -7.6594 H       1  UNL1        0.0000
     17 C           0.0760   -1.2395  -10.5033 C.3     1  UNL1        0.0000
     18 H          -0.4914   -1.5005  -11.3922 H       1  UNL1        0.0000
     19 H           0.1462   -2.1318   -9.8896 H       1  UNL1        0.0000
     20 H           1.0797   -0.9770  -10.8245 H       1  UNL1        0.0000
     21 C          -0.4894    1.8266  -10.4738 C.3     1  UNL1        0.0000
     22 H          -0.8510    1.7664  -11.4959 H       1  UNL1        0.0000
     23 H           0.5629    2.0910  -10.5119 H       1  UNL1        0.0000
     24 H          -1.0129    2.6417   -9.9857 H       1  UNL1        0.0000
     25 C          -2.6293   -0.1891   -9.3534 C.3     1  UNL1        0.0000
     26 H          -3.1171   -0.3281  -10.3138 H       1  UNL1        0.0000
     27 H          -3.1368    0.6200   -8.8371 H       1  UNL1        0.0000
     28 H          -2.7808   -1.0928   -8.7706 H       1  UNL1        0.0000
@<TRIPOS>BOND
     1    22    21    1
     2    18    17    1
     3    20    17    1
     4    23    21    1
     5    17    19    1
     6    17     2    1
     7    21    24    1
     8    21     2    1
     9    26    25    1
    10     2    25    1
    11     2     4    1
    12    25    27    1
    13    25    28    1
    14    15    13    1
    15     4     3    2
    16    16    13    1
    17    13    14    1
    18    13     1    1
    19     3     1    1
    20     1     5    1
    21     1     9    1
    22     8     5    1
    23     5     6    1
    24     5     7    1
    25    11     9    1
    26     9    12    1
    27     9    10    1
