@<TRIPOS>MOLECULE
3,4
 28 27 0 0 0
SMALL
GASTEIGER

@<TRIPOS>ATOM
      1 SI          2.7374    3.1766   -0.4203 Si      1  UNL1        0.0000
      2 SI          5.8032    3.0202    2.7540 Si      1  UNL1        0.0000
      3 C           3.2243    2.5853    1.2761 C.2     1  UNL1        0.0000
      4 C           4.1005    2.5352    2.1791 C.2     1  UNL1        0.0000
      5 C           1.1020    2.4090   -1.0239 C.3     1  UNL1        0.0000
      6 H           0.7413    2.8944   -1.9267 H       1  UNL1        0.0000
      7 H           0.3285    2.5027   -0.2685 H       1  UNL1        0.0000
      8 H           1.2146    1.3514   -1.2416 H       1  UNL1        0.0000
      9 C           2.5701    5.0813   -0.3817 C.3     1  UNL1        0.0000
     10 H           3.3312    5.5286    0.2500 H       1  UNL1        0.0000
     11 H           1.6005    5.3913   -0.0034 H       1  UNL1        0.0000
     12 H           2.6796    5.5017   -1.3771 H       1  UNL1        0.0000
     13 C           4.1607    2.7027   -1.6056 C.3     1  UNL1        0.0000
     14 H           5.0891    3.1761   -1.3016 H       1  UNL1        0.0000
     15 H           3.9474    3.0144   -2.6239 H       1  UNL1        0.0000
     16 H           4.3308    1.6302   -1.6200 H       1  UNL1        0.0000
     17 C           5.9976    4.8884    2.3979 C.3     1  UNL1        0.0000
     18 H           6.9697    5.2523    2.7176 H       1  UNL1        0.0000
     19 H           5.2424    5.4759    2.9113 H       1  UNL1        0.0000
     20 H           5.9014    5.0899    1.3356 H       1  UNL1        0.0000
     21 C           7.0988    2.0587    1.7272 C.3     1  UNL1        0.0000
     22 H           7.2587    1.0585    2.1185 H       1  UNL1        0.0000
     23 H           8.0578    2.5685    1.7370 H       1  UNL1        0.0000
     24 H           6.7871    1.9648    0.6914 H       1  UNL1        0.0000
     25 C           6.0849    2.6774    4.6066 C.3     1  UNL1        0.0000
     26 H           5.7404    1.6837    4.8734 H       1  UNL1        0.0000
     27 H           5.5473    3.3850    5.2302 H       1  UNL1        0.0000
     28 H           7.1375    2.7418    4.8686 H       1  UNL1        0.0000
@<TRIPOS>BOND
     1    15    13    1
     2     6     5    1
     3    16    13    1
     4    13    14    1
     5    13     1    1
     6    12     9    1
     7     8     5    1
     8     5     1    1
     9     5     7    1
    10     1     9    1
    11     1     3    1
    12     9    11    1
    13     9    10    1
    14    24    21    1
    15     3     4    2
    16    20    17    1
    17    21    23    1
    18    21    22    1
    19    21     2    1
    20     4     2    1
    21    17    18    1
    22    17     2    1
    23    17    19    1
    24     2    25    1
    25    25    28    1
    26    25    26    1
    27    25    27    1
