@<TRIPOS>MOLECULE
3,4
 28 27 0 0 0
SMALL
GASTEIGER

@<TRIPOS>ATOM
      1 SI          2.4347   -2.6316    2.3866 Si      1  UNL1        0.0000
      2 SI          3.5753    1.7275    1.4338 Si      1  UNL1        0.0000
      3 C           2.2646   -0.7735    2.5838 C.2     1  UNL1        0.0000
      4 C           2.5773    0.4113    2.3239 C.2     1  UNL1        0.0000
      5 C           0.8035   -3.2927    1.6555 C.3     1  UNL1        0.0000
      6 H           0.8317   -4.3704    1.5234 H       1  UNL1        0.0000
      7 H           0.5952   -2.8475    0.6870 H       1  UNL1        0.0000
      8 H          -0.0346   -3.0633    2.3078 H       1  UNL1        0.0000
      9 C           3.9021   -2.9399    1.2087 C.3     1  UNL1        0.0000
     10 H           4.0493   -4.0021    1.0377 H       1  UNL1        0.0000
     11 H           4.8247   -2.5402    1.6171 H       1  UNL1        0.0000
     12 H           3.7385   -2.4694    0.2446 H       1  UNL1        0.0000
     13 C           2.7602   -3.3813    4.1081 C.3     1  UNL1        0.0000
     14 H           2.8815   -4.4594    4.0595 H       1  UNL1        0.0000
     15 H           1.9354   -3.1736    4.7839 H       1  UNL1        0.0000
     16 H           3.6602   -2.9687    4.5550 H       1  UNL1        0.0000
     17 C           2.3586    2.8259    0.4616 C.3     1  UNL1        0.0000
     18 H           1.7879    2.2437   -0.2562 H       1  UNL1        0.0000
     19 H           2.8749    3.6091   -0.0857 H       1  UNL1        0.0000
     20 H           1.6495    3.3051    1.1308 H       1  UNL1        0.0000
     21 C           4.5066    2.7438    2.7499 C.3     1  UNL1        0.0000
     22 H           5.1075    3.5281    2.2991 H       1  UNL1        0.0000
     23 H           5.1708    2.1164    3.3373 H       1  UNL1        0.0000
     24 H           3.8110    3.2167    3.4375 H       1  UNL1        0.0000
     25 C           4.7837    0.8280    0.2649 C.3     1  UNL1        0.0000
     26 H           4.2506    0.2352   -0.4714 H       1  UNL1        0.0000
     27 H           5.4391    0.1595    0.8136 H       1  UNL1        0.0000
     28 H           5.4076    1.5369   -0.2710 H       1  UNL1        0.0000
@<TRIPOS>BOND
     1    26    25    1
     2    28    25    1
     3    18    17    1
     4    19    17    1
     5    12     9    1
     6    25    27    1
     7    25     2    1
     8    17    20    1
     9    17     2    1
    10     7     5    1
    11    10     9    1
    12     9    11    1
    13     9     1    1
    14     2     4    1
    15     2    21    1
    16     6     5    1
    17     5     8    1
    18     5     1    1
    19    22    21    1
    20     4     3    2
    21     1     3    1
    22     1    13    1
    23    21    23    1
    24    21    24    1
    25    14    13    1
    26    13    16    1
    27    13    15    1
