@<TRIPOS>MOLECULE
5,6
 28 28 0 0 0
SMALL
GASTEIGER

@<TRIPOS>ATOM
      1 P          -3.2693    2.9889    6.6753 P.3     1  UNL1       -0.1218
      2 C          -4.3926    2.6746    8.0905 C.3     1  UNL1       -0.0472
      3 C          -2.8974    4.7663    6.8221 C.3     1  UNL1       -0.0472
      4 C          -4.2840    2.7998    5.1945 C.3     1  UNL1       -0.0472
      5 C          -1.8366    1.9224    6.7241 C.3     1  UNL1        0.0250
      6 C          -2.1971    0.4864    6.6564 C.3     1  UNL1       -0.0375
      7 C          -0.9574    2.3826    7.8453 C.ar    1  UNL1       -0.0361
      8 C          -1.0404    1.8229    9.1223 C.ar    1  UNL1       -0.0577
      9 C          -0.2128    2.2476   10.1455 C.ar    1  UNL1       -0.0615
     10 C           0.7142    3.2524    9.9240 C.ar    1  UNL1       -0.0617
     11 C           0.7991    3.8309    8.6681 C.ar    1  UNL1       -0.0615
     12 C          -0.0276    3.4046    7.6446 C.ar    1  UNL1       -0.0577
     13 H          -1.8244   -0.1218    7.4812 H       1  UNL1        0.0278
     14 H          -3.2561    0.2701    6.4806 H       1  UNL1        0.0278
     15 H          -5.2714    3.3123    8.0276 H       1  UNL1        0.0275
     16 H          -3.8610    2.8736    9.0196 H       1  UNL1        0.0275
     17 H          -4.7001    1.6309    8.0713 H       1  UNL1        0.0275
     18 H          -3.8303    5.3160    6.9359 H       1  UNL1        0.0275
     19 H          -2.2617    4.9376    7.6891 H       1  UNL1        0.0275
     20 H          -2.3844    5.1064    5.9258 H       1  UNL1        0.0275
     21 H          -5.1531    3.4532    5.2621 H       1  UNL1        0.0275
     22 H          -4.6030    1.7641    5.0894 H       1  UNL1        0.0275
     23 H          -3.6722    3.0564    4.3298 H       1  UNL1        0.0275
     24 H          -1.7636    1.0434    9.3184 H       1  UNL1        0.0621
     25 H          -0.2941    1.7936   11.1230 H       1  UNL1        0.0618
     26 H           1.3628    3.5813   10.7222 H       1  UNL1        0.0618
     27 H           1.5184    4.6162    8.4836 H       1  UNL1        0.0618
     28 H           0.0578    3.8516    6.6659 H       1  UNL1        0.0621
@<TRIPOS>BOND
     1    23     4    1
     2    22     4    1
     3     4    21    1
     4     4     1    1
     5    20     3    1
     6    14     6    1
     7     6     5    1
     8     6    13    1
     9    28    12    1
    10     1     5    1
    11     1     3    1
    12     1     2    1
    13     5     7    1
    14     3    18    1
    15     3    19    1
    16    12     7   ar
    17    12    11   ar
    18     7     8   ar
    19    15     2    1
    20    17     2    1
    21     2    16    1
    22    27    11    1
    23    11    10   ar
    24     8    24    1
    25     8     9   ar
    26    10     9   ar
    27    10    26    1
    28     9    25    1
