@<TRIPOS>MOLECULE
1,6
 36 38 0 0 0
SMALL
GASTEIGER

@<TRIPOS>ATOM
      1 C           2.7410    4.0167    8.9919 C.3     1  UNL1       -0.0200
      2 H           2.6738    4.5872    9.9265 H       1  UNL1        0.0322
      3 H           2.3641    3.0018    9.1803 H       1  UNL1        0.0322
      4 P           4.4348    3.8545    8.5787 P.3     1  UNL1       -0.0416
      5 C           4.6399    3.1246    6.9272 C.ar    1  UNL1       -0.0114
      6 C           3.6551    3.4652    5.9808 C.ar    1  UNL1       -0.0094
      7 C           3.8483    2.8859    4.7148 C.ar    1  UNL1       -0.0534
      8 H           3.1225    3.0712    3.9270 H       1  UNL1        0.0624
      9 C           4.9329    2.0741    4.4196 C.ar    1  UNL1       -0.0611
     10 H           5.0362    1.6519    3.4294 H       1  UNL1        0.0618
     11 C           5.8932    1.7991    5.3815 C.ar    1  UNL1       -0.0611
     12 H           6.7424    1.1739    5.1458 H       1  UNL1        0.0618
     13 C           5.7477    2.3278    6.6482 C.ar    1  UNL1       -0.0533
     14 H           6.4784    2.1138    7.4195 H       1  UNL1        0.0624
     15 C           5.2313    5.4799    8.5733 C.ar    1  UNL1       -0.0191
     16 C           6.5717    5.5562    8.2007 C.ar    1  UNL1       -0.0539
     17 H           7.0893    4.6574    7.8920 H       1  UNL1        0.0624
     18 C           7.2255    6.7734    8.2236 C.ar    1  UNL1       -0.0612
     19 H           8.2623    6.8353    7.9280 H       1  UNL1        0.0618
     20 C           6.5495    7.9127    8.6332 C.ar    1  UNL1       -0.0617
     21 H           7.0648    8.8611    8.6623 H       1  UNL1        0.0618
     22 C           5.2147    7.8380    8.9964 C.ar    1  UNL1       -0.0612
     23 H           4.6901    8.7242    9.3197 H       1  UNL1        0.0618
     24 C           4.5454    6.6271    8.9526 C.ar    1  UNL1       -0.0539
     25 H           3.4960    6.5797    9.2073 H       1  UNL1        0.0624
     26 C           5.4013    2.8300    9.7333 C.ar    1  UNL1       -0.0191
     27 C           6.2739    3.3566   10.6781 C.ar    1  UNL1       -0.0539
     28 H           6.4806    4.4176   10.6876 H       1  UNL1        0.0624
     29 C           6.8797    2.5168   11.5964 C.ar    1  UNL1       -0.0612
     30 H           7.5630    2.9251   12.3262 H       1  UNL1        0.0618
     31 C           6.6095    1.1582   11.5846 C.ar    1  UNL1       -0.0617
     32 H           7.0867    0.5077   12.3020 H       1  UNL1        0.0618
     33 C           5.7229    0.6330   10.6562 C.ar    1  UNL1       -0.0612
     34 H           5.5087   -0.4253   10.6509 H       1  UNL1        0.0618
     35 C           5.1141    1.4661    9.7382 C.ar    1  UNL1       -0.0539
     36 H           4.4200    1.0713    9.0066 H       1  UNL1        0.0624
@<TRIPOS>BOND
     1    10     9    1
     2     8     7    1
     3     9     7   ar
     4     9    11   ar
     5     7     6   ar
     6    12    11    1
     7    11    13   ar
     8     6     5   ar
     9    13     5   ar
    10    13    14    1
    11     5     4    1
    12    17    16    1
    13    19    18    1
    14    16    18   ar
    15    16    15   ar
    16    18    20   ar
    17    15     4    1
    18    15    24   ar
    19     4     1    1
    20     4    26    1
    21    20    21    1
    22    20    22   ar
    23    24    22   ar
    24    24    25    1
    25     1     3    1
    26     1     2    1
    27    22    23    1
    28    36    35    1
    29    26    35   ar
    30    26    27   ar
    31    35    33   ar
    32    34    33    1
    33    33    31   ar
    34    27    28    1
    35    27    29   ar
    36    31    29   ar
    37    31    32    1
    38    29    30    1
