@<TRIPOS>MOLECULE
3,7
 36 35 0 0 0
SMALL
GASTEIGER

@<TRIPOS>ATOM
      1 SI         -0.9129    6.7487    3.6549 Si      1  UNL1        0.0000
      2 SI          0.6805    3.4384    8.2768 Si      1  UNL1        0.0000
      3 C          -0.4188    4.0392    3.8603 C.2     1  UNL1        0.0000
      4 C          -0.3646    5.1748    4.5804 C.2     1  UNL1        0.0000
      5 C           0.0972    5.0328    5.8957 C.3     1  UNL1        0.0000
      6 C           0.4096    3.7413    6.4096 C.2     1  UNL1        0.0000
      7 C           0.4199    2.6311    5.6081 C.2     1  UNL1        0.0000
      8 H           0.6798    1.7042    6.1191 H       1  UNL1        0.0000
      9 C           0.2705    6.2349    6.7592 C.3     1  UNL1        0.0000
     10 H           0.0130    7.1442    6.2277 H       1  UNL1        0.0000
     11 H          -0.3511    6.1560    7.6488 H       1  UNL1        0.0000
     12 H           1.3059    6.2972    7.0860 H       1  UNL1        0.0000
     13 C          -1.8395    6.1833    2.0878 C.3     1  UNL1        0.0000
     14 H          -1.4484    6.6677    1.1985 H       1  UNL1        0.0000
     15 H          -2.9014    6.4033    2.1418 H       1  UNL1        0.0000
     16 H          -1.7421    5.1101    1.9508 H       1  UNL1        0.0000
     17 C           0.6583    7.7326    3.1886 C.3     1  UNL1        0.0000
     18 H           0.3995    8.6561    2.6799 H       1  UNL1        0.0000
     19 H           1.2888    7.1547    2.5187 H       1  UNL1        0.0000
     20 H           1.2538    7.9939    4.0586 H       1  UNL1        0.0000
     21 C          -2.0850    7.8281    4.7199 C.3     1  UNL1        0.0000
     22 H          -2.8141    8.3237    4.0862 H       1  UNL1        0.0000
     23 H          -1.5528    8.6056    5.2592 H       1  UNL1        0.0000
     24 H          -2.6317    7.2369    5.4482 H       1  UNL1        0.0000
     25 C           1.3840    1.6922    8.5669 C.3     1  UNL1        0.0000
     26 H           1.6488    1.5497    9.6105 H       1  UNL1        0.0000
     27 H           2.2769    1.5202    7.9742 H       1  UNL1        0.0000
     28 H           0.6595    0.9270    8.3083 H       1  UNL1        0.0000
     29 C           1.8755    4.6467    9.1604 C.3     1  UNL1        0.0000
     30 H           2.2462    4.1899   10.0730 H       1  UNL1        0.0000
     31 H           1.3958    5.5779    9.4418 H       1  UNL1        0.0000
     32 H           2.7371    4.8832    8.5448 H       1  UNL1        0.0000
     33 C          -1.0407    3.5301    9.1109 C.3     1  UNL1        0.0000
     34 H          -0.9778    3.2805   10.1656 H       1  UNL1        0.0000
     35 H          -1.7252    2.8263    8.6458 H       1  UNL1        0.0000
     36 H          -1.4880    4.5168    9.0365 H       1  UNL1        0.0000
@<TRIPOS>BOND
     1    14    13    1
     2    16    13    1
     3    13    15    1
     4    13     1    1
     5    19    17    1
     6    18    17    1
     7    17     1    1
     8    17    20    1
     9     1     4    1
    10     1    21    1
    11     3     4    2
    12    22    21    1
    13     4     5    1
    14    21    23    1
    15    21    24    1
    16     7     8    1
    17     7     6    2
    18     5     6    1
    19     5     9    1
    20    10     9    1
    21     6     2    1
    22     9    12    1
    23     9    11    1
    24    27    25    1
    25     2    25    1
    26     2    33    1
    27     2    29    1
    28    28    25    1
    29    32    29    1
    30    25    26    1
    31    35    33    1
    32    36    33    1
    33    33    34    1
    34    29    31    1
    35    29    30    1
