@<TRIPOS>MOLECULE
1,3
 22 22 0 0 0
SMALL
GASTEIGER

@<TRIPOS>ATOM
      1 C           7.3920   10.4503    4.5407 C.3     1  UNL1       -0.0349
      2 H           7.1042   11.1881    3.7944 H       1  UNL1        0.0306
      3 C           7.1445    9.1205    4.2436 C.3     1  UNL1       -0.0349
      4 H           6.6791    8.8906    3.2860 H       1  UNL1        0.0306
      5 C           6.9531    8.0419    5.2814 C.3     1  UNL1       -0.0497
      6 H           7.6072    8.1921    6.1396 H       1  UNL1        0.0268
      7 H           7.2111    7.0832    4.8328 H       1  UNL1        0.0268
      8 C           5.4919    7.9633    5.7497 C.3     1  UNL1       -0.0528
      9 H           4.8381    7.9386    4.8768 H       1  UNL1        0.0265
     10 H           5.3662    7.0175    6.2818 H       1  UNL1        0.0265
     11 C           5.0468    9.0912    6.6829 C.3     1  UNL1       -0.0530
     12 H           4.0905    8.7904    7.1168 H       1  UNL1        0.0265
     13 H           5.7549    9.1820    7.5080 H       1  UNL1        0.0265
     14 C           4.8666   10.4509    5.9942 C.3     1  UNL1       -0.0530
     15 H           4.7972   10.3013    4.9171 H       1  UNL1        0.0265
     16 H           3.9230   10.8962    6.3181 H       1  UNL1        0.0265
     17 C           5.9682   11.4674    6.2958 C.3     1  UNL1       -0.0528
     18 H           5.9460   11.7231    7.3578 H       1  UNL1        0.0265
     19 H           5.7514   12.3785    5.7329 H       1  UNL1        0.0265
     20 C           7.3867   10.9894    5.9440 C.3     1  UNL1       -0.0497
     21 H           8.0613   11.8421    6.0442 H       1  UNL1        0.0268
     22 H           7.7099   10.2282    6.6516 H       1  UNL1        0.0268
@<TRIPOS>BOND
     1     4     3    1
     2     2     1    1
     3     3     1    1
     4     3     5    1
     5     1    20    1
     6     7     5    1
     7     9     8    1
     8    15    14    1
     9     5     8    1
    10     5     6    1
    11    19    17    1
    12     8    10    1
    13     8    11    1
    14    20    21    1
    15    20    17    1
    16    20    22    1
    17    14    17    1
    18    14    16    1
    19    14    11    1
    20    17    18    1
    21    11    12    1
    22    11    13    1
