@<TRIPOS>MOLECULE
2,3
 44 44 0 0 0
SMALL
GASTEIGER

@<TRIPOS>ATOM
      1 SI          4.5079    1.2667   12.4922 Si      1  UNL1        0.0000
      2 C           4.8046    2.9667   13.2547 C.3     1  UNL1        0.0000
      3 C           5.5364    1.7073   10.9849 C.3     1  UNL1        0.0000
      4 C           4.2369    3.4440   14.5485 C.3     1  UNL1        0.0000
      5 C           2.7344    3.7424   14.3992 C.3     1  UNL1        0.0000
      6 C           4.4032    2.3833   15.6480 C.3     1  UNL1        0.0000
      7 C           4.9497    4.7324   14.9853 C.3     1  UNL1        0.0000
      8 C           5.7545    0.9317    9.7360 C.3     1  UNL1        0.0000
      9 C           5.9900   -0.5633    9.9976 C.3     1  UNL1        0.0000
     10 C           4.5041    1.0664    8.8477 C.3     1  UNL1        0.0000
     11 C           6.9631    1.5035    8.9785 C.3     1  UNL1        0.0000
     12 C           2.7024    0.6615   12.2030 C.3     1  UNL1        0.0000
     13 C           5.3356   -0.1656   13.4482 C.ar    1  UNL1        0.0000
     14 C           6.6996   -0.3749   13.2923 C.ar    1  UNL1        0.0000
     15 C           7.3574   -1.4015   13.9447 C.ar    1  UNL1        0.0000
     16 C           6.6499   -2.2486   14.7818 C.ar    1  UNL1        0.0000
     17 C           5.2895   -2.0577   14.9517 C.ar    1  UNL1        0.0000
     18 C           4.6442   -1.0281   14.2887 C.ar    1  UNL1        0.0000
     19 H           2.2032    2.8485   14.0856 H       1  UNL1        0.0000
     20 H           2.5749    4.5174   13.6532 H       1  UNL1        0.0000
     21 H           2.3180    4.0826   15.3464 H       1  UNL1        0.0000
     22 H           5.4437    2.0832   15.7320 H       1  UNL1        0.0000
     23 H           3.8186    1.4999   15.4100 H       1  UNL1        0.0000
     24 H           4.0704    2.7730   16.6094 H       1  UNL1        0.0000
     25 H           6.0188    4.5499   15.0788 H       1  UNL1        0.0000
     26 H           4.5697    5.0861   15.9428 H       1  UNL1        0.0000
     27 H           4.7957    5.5115   14.2414 H       1  UNL1        0.0000
     28 H           5.1666   -0.9825   10.5695 H       1  UNL1        0.0000
     29 H           6.9055   -0.7161   10.5618 H       1  UNL1        0.0000
     30 H           6.0727   -1.1030    9.0550 H       1  UNL1        0.0000
     31 H           3.6405    0.6469    9.3562 H       1  UNL1        0.0000
     32 H           4.6456    0.5422    7.9036 H       1  UNL1        0.0000
     33 H           4.3126    2.1173    8.6415 H       1  UNL1        0.0000
     34 H           6.7933    2.5531    8.7439 H       1  UNL1        0.0000
     35 H           7.1333    0.9604    8.0499 H       1  UNL1        0.0000
     36 H           7.8569    1.4271    9.5954 H       1  UNL1        0.0000
     37 H           2.1382    0.6483   13.1298 H       1  UNL1        0.0000
     38 H           2.6976   -0.3485   11.8050 H       1  UNL1        0.0000
     39 H           2.1718    1.2975   11.5057 H       1  UNL1        0.0000
     40 H           7.2356    0.2935   12.6306 H       1  UNL1        0.0000
     41 H           8.4206   -1.5470   13.8035 H       1  UNL1        0.0000
     42 H           7.1552   -3.0545   15.2952 H       1  UNL1        0.0000
     43 H           4.7306   -2.7173   15.6015 H       1  UNL1        0.0000
     44 H           3.5800   -0.9002   14.4260 H       1  UNL1        0.0000
@<TRIPOS>BOND
     1    32    10    1
     2    35    11    1
     3    33    10    1
     4    34    11    1
     5    10    31    1
     6    10     8    1
     7    11    36    1
     8    11     8    1
     9    30     9    1
    10     8     9    1
    11     8     3    1
    12     9    29    1
    13     9    28    1
    14     3     1    1
    15    39    12    1
    16    38    12    1
    17    12     1    1
    18    12    37    1
    19     1     2    1
    20     1    13    1
    21    40    14    1
    22     2     4    1
    23    14    13   ar
    24    14    15   ar
    25    13    18   ar
    26    20     5    1
    27    41    15    1
    28    15    16   ar
    29    19     5    1
    30    27     7    1
    31    18    44    1
    32    18    17   ar
    33     5     4    1
    34     5    21    1
    35     4     7    1
    36     4     6    1
    37    16    17   ar
    38    16    42    1
    39    17    43    1
    40     7    25    1
    41     7    26    1
    42    23     6    1
    43     6    22    1
    44     6    24    1
