@<TRIPOS>MOLECULE
3,31
 45 45 0 0 0
SMALL
GASTEIGER

@<TRIPOS>ATOM
      1 SI          1.9829    5.8459    5.1203 Si      1  UNL1        0.0000
      2 SI          2.5792    8.4206    2.5254 Si      1  UNL1        0.0000
      3 C           3.3418    7.1589    5.1091 C.2     1  UNL1        0.0000
      4 C           0.2148    6.5083    4.7662 C.3     1  UNL1        0.0000
      5 H           0.0861    6.8440    3.7454 H       1  UNL1        0.0000
      6 H          -0.0270    7.3430    5.4179 H       1  UNL1        0.0000
      7 H          -0.5198    5.7301    4.9525 H       1  UNL1        0.0000
      8 C           2.3782    4.4025    3.9084 C.3     1  UNL1        0.0000
      9 H           3.0637    4.7077    3.1256 H       1  UNL1        0.0000
     10 H           1.4747    4.0371    3.4299 H       1  UNL1        0.0000
     11 H           2.8287    3.5612    4.4262 H       1  UNL1        0.0000
     12 C           1.7167    4.9853    6.8218 C.3     1  UNL1        0.0000
     13 H           1.1045    4.0978    6.6831 H       1  UNL1        0.0000
     14 H           1.1898    5.6266    7.5219 H       1  UNL1        0.0000
     15 H           2.6415    4.6659    7.2917 H       1  UNL1        0.0000
     16 C           3.5548    8.0755    4.1348 C.2     1  UNL1        0.0000
     17 C           1.1193    9.5896    2.9379 C.3     1  UNL1        0.0000
     18 H           0.5082    9.7766    2.0598 H       1  UNL1        0.0000
     19 H           1.4838   10.5491    3.2936 H       1  UNL1        0.0000
     20 H           0.4754    9.1827    3.7092 H       1  UNL1        0.0000
     21 C           1.9891    6.9050    1.5238 C.3     1  UNL1        0.0000
     22 H           1.4331    7.2402    0.6528 H       1  UNL1        0.0000
     23 H           1.3478    6.2408    2.0867 H       1  UNL1        0.0000
     24 H           2.8317    6.3228    1.1635 H       1  UNL1        0.0000
     25 C           3.6992    9.3595    1.2821 C.3     1  UNL1        0.0000
     26 H           3.2479    9.3634    0.2939 H       1  UNL1        0.0000
     27 H           4.6773    8.8966    1.1898 H       1  UNL1        0.0000
     28 H           3.8510   10.3960    1.5671 H       1  UNL1        0.0000
     29 C           4.6437    9.0179    4.3465 C.2     1  UNL1        0.0000
     30 H           4.8085    9.7862    3.5939 H       1  UNL1        0.0000
     31 C           5.4109    8.9561    5.4514 C.2     1  UNL1        0.0000
     32 C           6.3529   10.0271    5.7592 C.ar    1  UNL1        0.0000
     33 C           7.6197    9.8072    6.3120 C.ar    1  UNL1        0.0000
     34 H           7.9584    8.7978    6.4973 H       1  UNL1        0.0000
     35 C           8.4620   10.8585    6.6126 C.ar    1  UNL1        0.0000
     36 H           9.4394   10.6563    7.0297 H       1  UNL1        0.0000
     37 C           8.0785   12.1769    6.3918 C.ar    1  UNL1        0.0000
     38 C           6.8177   12.4070    5.8574 C.ar    1  UNL1        0.0000
     39 H           6.4913   13.4232    5.6822 H       1  UNL1        0.0000
     40 C           5.9738   11.3593    5.5476 C.ar    1  UNL1        0.0000
     41 H           4.9929   11.5666    5.1425 H       1  UNL1        0.0000
     42 C           9.0001   13.3062    6.7399 C.3     1  UNL1        0.0000
     43 H           9.9938   13.1301    6.3306 H       1  UNL1        0.0000
     44 H           9.0978   13.3953    7.8223 H       1  UNL1        0.0000
     45 H           8.6237   14.2494    6.3514 H       1  UNL1        0.0000
@<TRIPOS>BOND
     1    26    25    1
     2    22    21    1
     3    24    21    1
     4    27    25    1
     5    25    28    1
     6    25     2    1
     7    21    23    1
     8    21     2    1
     9    18    17    1
    10     2    17    1
    11     2    16    1
    12    17    19    1
    13    17    20    1
    14     9     8    1
    15    10     8    1
    16    30    29    1
    17     5     4    1
    18     8    11    1
    19     8     1    1
    20    16    29    1
    21    16     3    2
    22    29    31    2
    23     4     7    1
    24     4     1    1
    25     4     6    1
    26     3     1    1
    27     1    12    1
    28    41    40    1
    29    31    32    1
    30    40    32   ar
    31    40    38   ar
    32    39    38    1
    33    32    33   ar
    34    38    37   ar
    35    33    34    1
    36    33    35   ar
    37    43    42    1
    38    45    42    1
    39    37    35   ar
    40    37    42    1
    41    35    36    1
    42    13    12    1
    43    42    44    1
    44    12    15    1
    45    12    14    1
