@<TRIPOS>MOLECULE
3,6
 52 53 0 0 0
SMALL
GASTEIGER

@<TRIPOS>ATOM
      1 SI         -2.9420    8.1426   13.6968 Si      1  UNL1        0.0000
      2 SI         -2.9522    1.8621   15.7403 Si      1  UNL1        0.0000
      3 C          -2.9559    6.3587   14.2868 C.2     1  UNL1        0.0000
      4 C          -4.1167    5.6623   14.3515 C.2     1  UNL1        0.0000
      5 C          -4.1195    4.2575   14.8136 C.2     1  UNL1        0.0000
      6 C          -2.9604    3.6523   15.1699 C.2     1  UNL1        0.0000
      7 C          -5.4510    6.2136   14.0013 C.ar    1  UNL1        0.0000
      8 C          -6.2253    6.8498   14.9643 C.ar    1  UNL1        0.0000
      9 H          -5.8387    6.9558   15.9679 H       1  UNL1        0.0000
     10 C          -7.4782    7.3404   14.6455 C.ar    1  UNL1        0.0000
     11 H          -8.0723    7.8334   15.4019 H       1  UNL1        0.0000
     12 C          -7.9749    7.1979   13.3611 C.ar    1  UNL1        0.0000
     13 H          -8.9552    7.5781   13.1133 H       1  UNL1        0.0000
     14 C          -7.2109    6.5635   12.3963 C.ar    1  UNL1        0.0000
     15 H          -7.5950    6.4492   11.3925 H       1  UNL1        0.0000
     16 C          -5.9579    6.0736   12.7148 C.ar    1  UNL1        0.0000
     17 H          -5.3598    5.5792   11.9629 H       1  UNL1        0.0000
     18 C          -5.4574    3.6141   14.8682 C.ar    1  UNL1        0.0000
     19 C          -6.2161    3.6687   16.0315 C.ar    1  UNL1        0.0000
     20 H          -5.8140    4.1680   16.9015 H       1  UNL1        0.0000
     21 C          -7.4728    3.0938   16.0775 C.ar    1  UNL1        0.0000
     22 H          -8.0547    3.1424   16.9871 H       1  UNL1        0.0000
     23 C          -7.9889    2.4600   14.9601 C.ar    1  UNL1        0.0000
     24 H          -8.9723    2.0141   14.9949 H       1  UNL1        0.0000
     25 C          -7.2403    2.4023   13.7967 C.ar    1  UNL1        0.0000
     26 H          -7.6397    1.9090   12.9220 H       1  UNL1        0.0000
     27 C          -5.9836    2.9769   13.7508 C.ar    1  UNL1        0.0000
     28 H          -5.3979    2.9323   12.8439 H       1  UNL1        0.0000
     29 C          -1.1075    8.7328   13.6175 C.3     1  UNL1        0.0000
     30 H          -0.4111    7.9005   13.5283 H       1  UNL1        0.0000
     31 H          -0.9536    9.3793   12.7592 H       1  UNL1        0.0000
     32 H          -0.8338    9.3087   14.4962 H       1  UNL1        0.0000
     33 C          -3.8461    9.3695   14.8657 C.3     1  UNL1        0.0000
     34 H          -3.5929    9.1981   15.9079 H       1  UNL1        0.0000
     35 H          -4.9216    9.2665   14.7700 H       1  UNL1        0.0000
     36 H          -3.5888   10.3972   14.6289 H       1  UNL1        0.0000
     37 C          -3.6621    8.4337   11.9414 C.3     1  UNL1        0.0000
     38 H          -3.2843    7.7072   11.2280 H       1  UNL1        0.0000
     39 H          -3.4098    9.4225   11.5702 H       1  UNL1        0.0000
     40 H          -4.7435    8.3494   11.9498 H       1  UNL1        0.0000
     41 C          -1.1192    1.3366   16.0294 C.3     1  UNL1        0.0000
     42 H          -0.4212    1.9528   15.4648 H       1  UNL1        0.0000
     43 H          -0.8469    1.3936   17.0788 H       1  UNL1        0.0000
     44 H          -0.9667    0.3068   15.7220 H       1  UNL1        0.0000
     45 C          -3.8637    1.5454   17.4008 C.3     1  UNL1        0.0000
     46 H          -4.9386    1.5699   17.2576 H       1  UNL1        0.0000
     47 H          -3.6166    2.2934   18.1485 H       1  UNL1        0.0000
     48 H          -3.6054    0.5734   17.8094 H       1  UNL1        0.0000
     49 C          -3.6679    0.6038   14.4796 C.3     1  UNL1        0.0000
     50 H          -3.4216   -0.4168   14.7570 H       1  UNL1        0.0000
     51 H          -4.7487    0.6815   14.4299 H       1  UNL1        0.0000
     52 H          -3.2826    0.7759   13.4789 H       1  UNL1        0.0000
@<TRIPOS>BOND
     1    38    37    1
     2    15    14    1
     3    39    37    1
     4    37    40    1
     5    37     1    1
     6    17    16    1
     7    14    16   ar
     8    14    12   ar
     9    16     7   ar
    10    31    29    1
    11    28    27    1
    12    26    25    1
    13    13    12    1
    14    12    10   ar
    15    52    49    1
    16    30    29    1
    17    29     1    1
    18    29    32    1
    19     1     3    1
    20     1    33    1
    21    27    25   ar
    22    27    18   ar
    23    25    23   ar
    24     7     4    1
    25     7     8   ar
    26     3     4    2
    27     4     5    1
    28    51    49    1
    29    49    50    1
    30    49     2    1
    31    36    33    1
    32    10     8   ar
    33    10    11    1
    34    35    33    1
    35     5    18    1
    36     5     6    2
    37    33    34    1
    38    18    19   ar
    39    23    24    1
    40    23    21   ar
    41     8     9    1
    42     6     2    1
    43    42    41    1
    44    44    41    1
    45     2    41    1
    46     2    45    1
    47    41    43    1
    48    19    21   ar
    49    19    20    1
    50    21    22    1
    51    46    45    1
    52    45    48    1
    53    45    47    1
