@<TRIPOS>MOLECULE
1,9
 10 10 0 0 0
SMALL
GASTEIGER

@<TRIPOS>ATOM
      1 C           7.3689    4.3720    9.5671 C.2     1  UNL1       -0.0763
      2 H           7.3036    5.4433    9.4202 H       1  UNL1        0.0578
      3 C           8.4716    3.6947   10.0993 C.2     1  UNL1       -0.0654
      4 H           9.4599    4.1048   10.2366 H       1  UNL1        0.0615
      5 C           8.0746    2.4023   10.4603 C.2     1  UNL1       -0.0654
      6 H           8.7126    1.6539   10.8960 H       1  UNL1        0.0615
      7 C           6.7230    2.2568   10.1716 C.2     1  UNL1       -0.0763
      8 H           6.1246    1.3860   10.3930 H       1  UNL1        0.0578
      9 C           6.2507    3.4562    9.5912 C.3     1  UNL1        0.0054
     10 H           5.2054    3.7550    9.5868 H       1  UNL1        0.0394
@<TRIPOS>BOND
     1     2     1    1
     2     1     9    1
     3     1     3    2
     4    10     9    1
     5     9     7    1
     6     3     4    1
     7     3     5    1
     8     7     8    1
     9     7     5    2
    10     5     6    1
