@<TRIPOS>MOLECULE
3,4
 13 12 0 0 0
SMALL
GASTEIGER

@<TRIPOS>ATOM
      1 O          21.7357    0.4854   14.7990 O.2     1  UNL1       -0.2449
      2 O          23.2517   -0.0239   13.2193 O.3     1  UNL1       -0.4644
      3 C          22.0604    2.2052   11.6263 C.2     1  UNL1       -0.0320
      4 C          21.8799    1.8045   12.8443 C.2     1  UNL1        0.0763
      5 C          22.7138    1.7965   10.3664 C.3     1  UNL1       -0.0386
      6 C          22.2546    0.7054   13.7221 C.2     1  UNL1        0.3400
      7 C          23.7174   -1.1049   14.0227 C.3     1  UNL1        0.0820
      8 H          22.5263    2.4998    9.5555 H       1  UNL1        0.0278
      9 H          23.7900    1.7182   10.5273 H       1  UNL1        0.0278
     10 H          22.3544    0.8093   10.0719 H       1  UNL1        0.0278
     11 H          24.4897   -1.6016   13.4421 H       1  UNL1        0.0661
     12 H          24.1270   -0.7267   14.9610 H       1  UNL1        0.0661
     13 H          22.8993   -1.7925   14.2433 H       1  UNL1        0.0661
@<TRIPOS>BOND
     1     8     5    1
     2    10     5    1
     3     5     9    1
     4     5     3    1
     5     3     4    2
     6     4     6    1
     7     2     6    1
     8     2     7    1
     9    11     7    1
    10     6     1    2
    11     7    13    1
    12     7    12    1
