@<TRIPOS>MOLECULE
6,45
 75 79 0 0 0
SMALL
GASTEIGER

@<TRIPOS>ATOM
      1 SI          5.4745    2.3752   -1.5469 Si      1  UNL1        0.0000
      2 C           4.3723    2.7825   -0.0626 C.3     1  UNL1        0.0000
      3 C           2.9745    2.6459    0.0809 C.3     1  UNL1        0.0000
      4 C           2.6283    2.7586    1.4423 C.2     1  UNL1        0.0000
      5 C           3.8081    2.9293    2.1917 C.2     1  UNL1        0.0000
      6 C           4.9138    2.9292    1.2828 C.3     1  UNL1        0.0000
      7 C           1.9446    2.4762   -0.9970 C.3     1  UNL1        0.0000
      8 H           2.2621    1.7276   -1.7270 H       1  UNL1        0.0000
      9 H           1.8262    3.4220   -1.5368 H       1  UNL1        0.0000
     10 C           0.5984    2.0741   -0.3912 C.3     1  UNL1        0.0000
     11 H          -0.1803    2.1344   -1.1548 H       1  UNL1        0.0000
     12 H           0.6451    1.0381   -0.0434 H       1  UNL1        0.0000
     13 C           0.2498    2.9825    0.7854 C.3     1  UNL1        0.0000
     14 H          -0.7762    2.8001    1.1124 H       1  UNL1        0.0000
     15 H           0.3222    4.0230    0.4625 H       1  UNL1        0.0000
     16 C           1.2154    2.7436    1.9465 C.3     1  UNL1        0.0000
     17 H           1.0809    3.5136    2.7122 H       1  UNL1        0.0000
     18 H           0.9850    1.7786    2.4155 H       1  UNL1        0.0000
     19 C           3.9452    3.2945    3.6425 C.3     1  UNL1        0.0000
     20 H           3.4092    2.5901    4.2843 H       1  UNL1        0.0000
     21 H           3.5058    4.2858    3.8085 H       1  UNL1        0.0000
     22 C           5.4253    3.3256    4.0182 C.3     1  UNL1        0.0000
     23 H           5.5447    3.7178    5.0307 H       1  UNL1        0.0000
     24 H           5.8230    2.3044    3.9963 H       1  UNL1        0.0000
     25 C           6.1923    4.1976    3.0261 C.3     1  UNL1        0.0000
     26 H           7.2036    4.3905    3.3911 H       1  UNL1        0.0000
     27 H           5.6790    5.1579    2.9394 H       1  UNL1        0.0000
     28 C           6.2606    3.5375    1.6440 C.3     1  UNL1        0.0000
     29 H           6.5148    4.2960    0.8996 H       1  UNL1        0.0000
     30 H           7.0741    2.7943    1.6339 H       1  UNL1        0.0000
     31 C           4.5767    2.4089   -3.2332 C.3     1  UNL1        0.0000
     32 H           3.9111    1.5626   -3.3598 H       1  UNL1        0.0000
     33 H           5.3012    2.3740   -4.0398 H       1  UNL1        0.0000
     34 H           3.9924    3.3144   -3.3520 H       1  UNL1        0.0000
     35 C           7.0186    3.4862   -1.7302 C.3     1  UNL1        0.0000
     36 H           7.5114    3.2750   -2.6730 H       1  UNL1        0.0000
     37 H           7.7426    3.3232   -0.9404 H       1  UNL1        0.0000
     38 H           6.7500    4.5370   -1.7303 H       1  UNL1        0.0000
     39 C           5.9717    0.6157   -1.0516 C.2     1  UNL1        0.0000
     40 C           7.2251    0.0222   -0.8550 C.2     1  UNL1        0.0000
     41 H           8.1716    0.5347   -0.9260 H       1  UNL1        0.0000
     42 C           7.0605   -1.3450   -0.6017 C.2     1  UNL1        0.0000
     43 H           7.8641   -2.0424   -0.4363 H       1  UNL1        0.0000
     44 C           5.7012   -1.6590   -0.6331 C.2     1  UNL1        0.0000
     45 C           4.9810   -0.4485   -0.8587 C.3     1  UNL1        0.0000
     46 H           3.9932   -0.4235   -1.3244 H       1  UNL1        0.0000
     47 C           5.0857   -3.0268   -0.5480 C.3     1  UNL1        0.0000
     48 H           3.9933   -2.9203   -0.5279 H       1  UNL1        0.0000
     49 C           5.5213   -3.7337    0.7418 C.3     1  UNL1        0.0000
     50 H           6.6096   -3.8269    0.7418 H       1  UNL1        0.0000
     51 H           5.2355   -3.1137    1.5981 H       1  UNL1        0.0000
     52 C           4.9069   -5.1268    0.8729 C.3     1  UNL1        0.0000
     53 H           3.8162   -5.0251    0.9284 H       1  UNL1        0.0000
     54 C           5.2545   -5.9574   -0.3624 C.3     1  UNL1        0.0000
     55 H           4.7818   -6.9402   -0.2910 H       1  UNL1        0.0000
     56 H           6.3359   -6.1109   -0.3979 H       1  UNL1        0.0000
     57 C           4.8000   -5.2573   -1.6387 C.3     1  UNL1        0.0000
     58 H           3.7152   -5.1384   -1.6094 H       1  UNL1        0.0000
     59 H           5.0487   -5.8800   -2.4996 H       1  UNL1        0.0000
     60 C           5.4665   -3.8878   -1.7709 C.3     1  UNL1        0.0000
     61 H           6.5522   -4.0321   -1.7374 H       1  UNL1        0.0000
     62 C           5.3979   -5.8223    2.1401 C.3     1  UNL1        0.0000
     63 H           5.1583   -5.2346    3.0228 H       1  UNL1        0.0000
     64 H           6.4773   -5.9560    2.1044 H       1  UNL1        0.0000
     65 H           4.9361   -6.8023    2.2425 H       1  UNL1        0.0000
     66 C           5.1571   -3.1759   -3.1033 C.3     1  UNL1        0.0000
     67 H           5.5407   -2.1545   -3.0074 H       1  UNL1        0.0000
     68 C           3.6654   -3.0926   -3.4221 C.3     1  UNL1        0.0000
     69 H           3.5106   -2.4592   -4.2932 H       1  UNL1        0.0000
     70 H           3.1085   -2.6653   -2.5923 H       1  UNL1        0.0000
     71 H           3.2583   -4.0759   -3.6452 H       1  UNL1        0.0000
     72 C           5.8957   -3.8358   -4.2674 C.3     1  UNL1        0.0000
     73 H           5.7406   -3.2652   -5.1805 H       1  UNL1        0.0000
     74 H           5.5366   -4.8481   -4.4385 H       1  UNL1        0.0000
     75 H           6.9642   -3.8768   -4.0694 H       1  UNL1        0.0000
@<TRIPOS>BOND
     1    73    72    1
     2    74    72    1
     3    69    68    1
     4    72    75    1
     5    72    66    1
     6    33    31    1
     7    71    68    1
     8    68    66    1
     9    68    70    1
    10    32    31    1
    11    34    31    1
    12    31     1    1
    13    66    67    1
    14    66    60    1
    15    36    35    1
    16    59    57    1
    17    60    61    1
    18    60    57    1
    19    60    47    1
    20    38    35    1
    21    35     1    1
    22    35    37    1
    23     8     7    1
    24    57    58    1
    25    57    54    1
    26     1    39    1
    27     1     2    1
    28     9     7    1
    29    46    45    1
    30    11    10    1
    31    39    45    1
    32    39    40    2
    33     7    10    1
    34     7     3    1
    35    41    40    1
    36    45    44    1
    37    40    42    1
    38    44    42    2
    39    44    47    1
    40    42    43    1
    41    47    48    1
    42    47    49    1
    43    56    54    1
    44    10    12    1
    45    10    13    1
    46    54    55    1
    47    54    52    1
    48     2     3    1
    49     2     6    1
    50     3     4    1
    51    15    13    1
    52    49    50    1
    53    49    52    1
    54    49    51    1
    55    13    14    1
    56    13    16    1
    57    52    53    1
    58    52    62    1
    59    29    28    1
    60     6    28    1
    61     6     5    1
    62     4    16    1
    63     4     5    2
    64    30    28    1
    65    28    25    1
    66    16    18    1
    67    16    17    1
    68    64    62    1
    69    62    65    1
    70    62    63    1
    71     5    19    1
    72    27    25    1
    73    25    26    1
    74    25    22    1
    75    19    21    1
    76    19    22    1
    77    19    20    1
    78    24    22    1
    79    22    23    1
