@<TRIPOS>MOLECULE
6,8
 62 62 0 0 0
SMALL
GASTEIGER

@<TRIPOS>ATOM
      1 SI          2.0638    8.9909   19.7050 Si      1  UNL1        0.0000
      2 N           2.6569    8.2411   18.2061 N.pl3   1  UNL1        0.0000
      3 H           2.3707    7.2710   18.2319 H       1  UNL1        0.0000
      4 C           3.0474    8.5678   16.9287 C.2     1  UNL1        0.0000
      5 C           3.8885    9.6678   16.6400 C.2     1  UNL1        0.0000
      6 C           4.2692    9.9363   15.3157 C.3     1  UNL1        0.0000
      7 H           4.7632   10.8760   15.0949 H       1  UNL1        0.0000
      8 C           3.8136    9.1423   14.2560 C.3     1  UNL1        0.0000
      9 H           3.9491    9.4628   13.2287 H       1  UNL1        0.0000
     10 C           2.9746    8.0646   14.5451 C.2     1  UNL1        0.0000
     11 H           2.5458    7.5065   13.7205 H       1  UNL1        0.0000
     12 C           2.6154    7.7356   15.8430 C.2     1  UNL1        0.0000
     13 C           1.5819    6.6388   16.0275 C.3     1  UNL1        0.0000
     14 H           1.5483    6.3172   17.0730 H       1  UNL1        0.0000
     15 C           1.8627    5.3781   15.2077 C.3     1  UNL1        0.0000
     16 H           1.7838    5.5583   14.1390 H       1  UNL1        0.0000
     17 H           1.1317    4.6154   15.4656 H       1  UNL1        0.0000
     18 H           2.8545    4.9886   15.4279 H       1  UNL1        0.0000
     19 C           0.2052    7.2157   15.6719 C.3     1  UNL1        0.0000
     20 H          -0.0075    8.1004   16.2677 H       1  UNL1        0.0000
     21 H          -0.5707    6.4771   15.8574 H       1  UNL1        0.0000
     22 H           0.1672    7.4949   14.6214 H       1  UNL1        0.0000
     23 C           4.3272   10.6464   17.7034 C.3     1  UNL1        0.0000
     24 H           3.8748   10.3361   18.6442 H       1  UNL1        0.0000
     25 C           5.8483   10.6263   17.8742 C.3     1  UNL1        0.0000
     26 H           6.2042    9.6133   18.0624 H       1  UNL1        0.0000
     27 H           6.1366   11.2530   18.7151 H       1  UNL1        0.0000
     28 H           6.3495   11.0096   16.9874 H       1  UNL1        0.0000
     29 C           3.8578   12.0723   17.3917 C.3     1  UNL1        0.0000
     30 H           4.4182   12.5045   16.5655 H       1  UNL1        0.0000
     31 H           4.0146   12.7072   18.2604 H       1  UNL1        0.0000
     32 H           2.8019   12.0929   17.1364 H       1  UNL1        0.0000
     33 C           1.1779   10.6575   19.3490 C.3     1  UNL1        0.0000
     34 H           1.9272   11.4526   19.3181 H       1  UNL1        0.0000
     35 C           0.4447   10.6718   18.0080 C.3     1  UNL1        0.0000
     36 H           1.1102   10.4064   17.1884 H       1  UNL1        0.0000
     37 H           0.0377   11.6623   17.8107 H       1  UNL1        0.0000
     38 H          -0.3839    9.9690   18.0123 H       1  UNL1        0.0000
     39 C           0.2054   11.0173   20.4731 C.3     1  UNL1        0.0000
     40 H          -0.6111   10.3031   20.5291 H       1  UNL1        0.0000
     41 H          -0.2222   12.0029   20.2981 H       1  UNL1        0.0000
     42 H           0.7075   11.0323   21.4369 H       1  UNL1        0.0000
     43 C           3.4607    9.1232   21.0388 C.3     1  UNL1        0.0000
     44 H           3.0260    8.7051   21.9527 H       1  UNL1        0.0000
     45 C           3.8997   10.5439   21.3977 C.3     1  UNL1        0.0000
     46 H           4.4277   11.0237   20.5785 H       1  UNL1        0.0000
     47 H           4.5731   10.5172   22.2527 H       1  UNL1        0.0000
     48 H           3.0465   11.1612   21.6640 H       1  UNL1        0.0000
     49 C           4.6844    8.2694   20.7010 C.3     1  UNL1        0.0000
     50 H           4.3981    7.2336   20.5379 H       1  UNL1        0.0000
     51 H           5.4005    8.2996   21.5205 H       1  UNL1        0.0000
     52 H           5.1807    8.6341   19.8057 H       1  UNL1        0.0000
     53 C           0.8470    7.6646   20.4000 C.3     1  UNL1        0.0000
     54 H           0.4854    8.0521   21.3578 H       1  UNL1        0.0000
     55 C           1.5351    6.3315   20.7024 C.3     1  UNL1        0.0000
     56 H           1.9283    5.8666   19.7991 H       1  UNL1        0.0000
     57 H           0.8243    5.6364   21.1456 H       1  UNL1        0.0000
     58 H           2.3543    6.4613   21.4032 H       1  UNL1        0.0000
     59 C          -0.3854    7.4084   19.5323 C.3     1  UNL1        0.0000
     60 H          -0.9664    8.3151   19.3935 H       1  UNL1        0.0000
     61 H          -1.0310    6.6710   20.0066 H       1  UNL1        0.0000
     62 H          -0.1091    7.0275   18.5527 H       1  UNL1        0.0000
@<TRIPOS>BOND
     1     9     8    1
     2    11    10    1
     3    16    15    1
     4     8    10    1
     5     8     6    1
     6    10    12    2
     7    22    19    1
     8     7     6    1
     9    15    18    1
    10    15    17    1
    11    15    13    1
    12     6     5    1
    13    19    21    1
    14    19    13    1
    15    19    20    1
    16    12    13    1
    17    12     4    1
    18    13    14    1
    19    30    29    1
    20     5     4    2
    21     5    23    1
    22     4     2    1
    23    28    25    1
    24    32    29    1
    25    36    35    1
    26    29    23    1
    27    29    31    1
    28    23    25    1
    29    23    24    1
    30    37    35    1
    31    25    26    1
    32    25    27    1
    33    35    38    1
    34    35    33    1
    35     2     3    1
    36     2     1    1
    37    62    59    1
    38    34    33    1
    39    33     1    1
    40    33    39    1
    41    60    59    1
    42    59    61    1
    43    59    53    1
    44     1    53    1
    45     1    43    1
    46    56    55    1
    47    52    49    1
    48    41    39    1
    49    53    55    1
    50    53    54    1
    51    39    40    1
    52    39    42    1
    53    50    49    1
    54    46    45    1
    55    49    43    1
    56    49    51    1
    57    55    57    1
    58    55    58    1
    59    43    45    1
    60    43    44    1
    61    45    48    1
    62    45    47    1
