@<TRIPOS>MOLECULE
4,7
 45 44 0 0 0
SMALL
GASTEIGER

@<TRIPOS>ATOM
      1 SI         14.7359    2.6219    7.0586 Si      1  UNL1        0.0000
      2 N          17.6136    4.5691    4.1186 N.2     1  UNL1        0.0000
      3 N          14.7723    5.7260    4.7866 N.2     1  UNL1        0.0000
      4 C          16.5060    4.1763    4.5960 C.2     1  UNL1        0.0000
      5 C          15.5037    4.8953    5.4119 C.2     1  UNL1        0.0000
      6 C          15.4665    4.4055    6.8298 C.3     1  UNL1        0.0000
      7 C          14.7418    1.6405    5.4477 C.3     1  UNL1        0.0000
      8 C          15.7681    1.8751    8.4921 C.3     1  UNL1        0.0000
      9 C          12.9680    2.7442    7.8000 C.3     1  UNL1        0.0000
     10 C          18.2263    5.8884    4.3254 C.3     1  UNL1        0.0000
     11 C          17.4921    6.9608    3.5139 C.3     1  UNL1        0.0000
     12 C          18.2394    6.2912    5.8036 C.3     1  UNL1        0.0000
     13 C          19.6695    5.7586    3.8224 C.3     1  UNL1        0.0000
     14 C          13.6849    6.5453    5.2774 C.3     1  UNL1        0.0000
     15 C          14.2238    7.6459    6.2047 C.3     1  UNL1        0.0000
     16 C          12.5692    5.7631    5.9814 C.3     1  UNL1        0.0000
     17 C          13.0979    7.2093    4.0204 C.3     1  UNL1        0.0000
     18 H          14.9337    5.1051    7.4687 H       1  UNL1        0.0000
     19 H          16.4963    4.3586    7.1871 H       1  UNL1        0.0000
     20 H          13.7813    1.8344    4.9605 H       1  UNL1        0.0000
     21 H          14.7503    0.5685    5.6784 H       1  UNL1        0.0000
     22 H          16.8358    1.9260    8.3115 H       1  UNL1        0.0000
     23 H          15.5083    0.8349    8.6576 H       1  UNL1        0.0000
     24 H          15.5690    2.4054    9.4187 H       1  UNL1        0.0000
     25 H          12.2268    3.0294    7.0617 H       1  UNL1        0.0000
     26 H          12.9121    3.4559    8.6179 H       1  UNL1        0.0000
     27 H          12.6715    1.7781    8.1964 H       1  UNL1        0.0000
     28 H          16.4362    6.9550    3.7696 H       1  UNL1        0.0000
     29 H          17.5949    6.7698    2.4492 H       1  UNL1        0.0000
     30 H          17.9132    7.9405    3.7314 H       1  UNL1        0.0000
     31 H          17.2323    6.5032    6.1499 H       1  UNL1        0.0000
     32 H          18.8443    7.1854    5.9374 H       1  UNL1        0.0000
     33 H          18.6653    5.4927    6.4091 H       1  UNL1        0.0000
     34 H          20.1758    6.7200    3.8638 H       1  UNL1        0.0000
     35 H          19.6751    5.4060    2.7940 H       1  UNL1        0.0000
     36 H          20.2201    5.0485    4.4350 H       1  UNL1        0.0000
     37 H          14.9906    8.2218    5.6908 H       1  UNL1        0.0000
     38 H          14.6593    7.2246    7.1076 H       1  UNL1        0.0000
     39 H          13.4171    8.3164    6.4917 H       1  UNL1        0.0000
     40 H          12.2876    4.8981    5.3850 H       1  UNL1        0.0000
     41 H          11.6960    6.4017    6.0975 H       1  UNL1        0.0000
     42 H          12.8761    5.4212    6.9634 H       1  UNL1        0.0000
     43 H          13.8803    7.7345    3.4788 H       1  UNL1        0.0000
     44 H          12.3181    7.9178    4.2883 H       1  UNL1        0.0000
     45 H          12.6764    6.4543    3.3618 H       1  UNL1        0.0000
@<TRIPOS>BOND
     1    29    11    1
     2    35    13    1
     3    45    17    1
     4    43    17    1
     5    11    30    1
     6    11    28    1
     7    11    10    1
     8    13    34    1
     9    13    10    1
    10    13    36    1
    11    17    44    1
    12    17    14    1
    13     2    10    1
    14     2     4    2
    15    10    12    1
    16     4     5    1
    17     3    14    1
    18     3     5    2
    19    20     7    1
    20    14    16    1
    21    14    15    1
    22    40    16    1
    23     5     6    1
    24     7    21    1
    25     7     1    1
    26    37    15    1
    27    12    32    1
    28    12    31    1
    29    12    33    1
    30    16    41    1
    31    16    42    1
    32    15    39    1
    33    15    38    1
    34     6     1    1
    35     6    19    1
    36     6    18    1
    37     1     9    1
    38     1     8    1
    39    25     9    1
    40     9    27    1
    41     9    26    1
    42    22     8    1
    43     8    23    1
    44     8    24    1
