@<TRIPOS>MOLECULE
5,6
 42 41 0 0 0
SMALL
GASTEIGER

@<TRIPOS>ATOM
      1 S          20.2241    4.1411    5.5764 S.3     1  UNL1        0.0000
      2 S          17.7820    2.5858    3.0274 S.3     1  UNL1        0.0000
      3 SI         17.6160    0.6325    6.8349 Si      1  UNL1        0.0000
      4 SI         17.5795    1.0571   -1.2348 Si      1  UNL1        0.0000
      5 C          19.4374    4.6455    4.0919 C.2     1  UNL1        0.0000
      6 C          18.6275    4.1384    3.1830 C.2     1  UNL1        0.0000
      7 C          19.6187    2.4272    5.8650 C.3     1  UNL1        0.0000
      8 H          19.6408    1.9092    4.9096 H       1  UNL1        0.0000
      9 H          20.3605    1.9903    6.5315 H       1  UNL1        0.0000
     10 C          18.2362    2.4083    6.4770 C.3     1  UNL1        0.0000
     11 H          17.5469    2.9079    5.7945 H       1  UNL1        0.0000
     12 H          18.2502    2.9965    7.3961 H       1  UNL1        0.0000
     13 C          18.7615   -0.1889    8.1248 C.3     1  UNL1        0.0000
     14 H          19.7659   -0.3259    7.7351 H       1  UNL1        0.0000
     15 H          18.3892   -1.1665    8.4155 H       1  UNL1        0.0000
     16 H          18.8394    0.4118    9.0261 H       1  UNL1        0.0000
     17 C          15.8418    0.7412    7.5294 C.3     1  UNL1        0.0000
     18 H          15.4558   -0.2443    7.7703 H       1  UNL1        0.0000
     19 H          15.1641    1.1930    6.8120 H       1  UNL1        0.0000
     20 H          15.8048    1.3375    8.4358 H       1  UNL1        0.0000
     21 C          17.6183   -0.4018    5.2311 C.3     1  UNL1        0.0000
     22 H          17.0692   -1.3307    5.3544 H       1  UNL1        0.0000
     23 H          18.6287   -0.6565    4.9252 H       1  UNL1        0.0000
     24 H          17.1613    0.1504    4.4158 H       1  UNL1        0.0000
     25 C          17.5506    2.5193    1.2025 C.3     1  UNL1        0.0000
     26 H          16.5389    2.8593    0.9802 H       1  UNL1        0.0000
     27 H          18.2717    3.2196    0.7772 H       1  UNL1        0.0000
     28 C          17.7748    1.1207    0.6691 C.3     1  UNL1        0.0000
     29 H          17.0682    0.4424    1.1492 H       1  UNL1        0.0000
     30 H          18.7717    0.7855    0.9604 H       1  UNL1        0.0000
     31 C          15.8313    1.6507   -1.7215 C.3     1  UNL1        0.0000
     32 H          15.6483    2.6675   -1.3864 H       1  UNL1        0.0000
     33 H          15.0656    1.0180   -1.2825 H       1  UNL1        0.0000
     34 H          15.6912    1.6306   -2.7982 H       1  UNL1        0.0000
     35 C          17.8614   -0.7308   -1.8272 C.3     1  UNL1        0.0000
     36 H          17.1455   -1.4131   -1.3803 H       1  UNL1        0.0000
     37 H          18.8547   -1.0843   -1.5696 H       1  UNL1        0.0000
     38 H          17.7562   -0.8057   -2.9045 H       1  UNL1        0.0000
     39 C          18.8774    2.2166   -2.0226 C.3     1  UNL1        0.0000
     40 H          19.8848    1.9440   -1.7219 H       1  UNL1        0.0000
     41 H          18.7158    3.2477   -1.7216 H       1  UNL1        0.0000
     42 H          18.8390    2.1777   -3.1072 H       1  UNL1        0.0000
@<TRIPOS>BOND
     1    42    39    1
     2    38    35    1
     3    34    31    1
     4    39    40    1
     5    39    41    1
     6    39     4    1
     7    35    37    1
     8    35    36    1
     9    35     4    1
    10    31    32    1
    11    31    33    1
    12    31     4    1
    13     4    28    1
    14    28    30    1
    15    28    29    1
    16    28    25    1
    17    27    25    1
    18    26    25    1
    19    25     2    1
    20     2     6    1
    21     6     5    2
    22     5     1    1
    23    24    21    1
    24     8     7    1
    25    23    21    1
    26    21    22    1
    27    21     3    1
    28     1     7    1
    29    11    10    1
    30     7    10    1
    31     7     9    1
    32    10     3    1
    33    10    12    1
    34    19    17    1
    35     3    17    1
    36     3    13    1
    37    17    18    1
    38    17    20    1
    39    14    13    1
    40    13    15    1
    41    13    16    1
