@<TRIPOS>MOLECULE
4,5
 41 41 0 0 0
SMALL
GASTEIGER

@<TRIPOS>ATOM
      1 P           6.6641    5.5245    9.7153 P.3     1  UNL1        0.0000
      2 SI          8.9047    5.8398    9.6105 Si      1  UNL1        0.0000
      3 SI          6.1491    4.5029    7.7521 Si      1  UNL1        0.0000
      4 C           4.9168    7.5917    9.6728 C.2     1  UNL1        0.0000
      5 C           6.1084    7.1829    9.2137 C.2     1  UNL1        0.0000
      6 C           4.3913    8.8867    9.2188 C.ar    1  UNL1        0.0000
      7 C           4.1025    9.1024    7.8680 C.ar    1  UNL1        0.0000
      8 C           3.5715   10.3042    7.4397 C.ar    1  UNL1        0.0000
      9 C           3.3340   11.3252    8.3448 C.ar    1  UNL1        0.0000
     10 C           3.6335   11.1342    9.6847 C.ar    1  UNL1        0.0000
     11 C           4.1481    9.9283   10.1202 C.ar    1  UNL1        0.0000
     12 C           9.4388    6.4365   11.3494 C.3     1  UNL1        0.0000
     13 C           9.7486    4.1675    9.2384 C.3     1  UNL1        0.0000
     14 C           9.5236    7.1517    8.3567 C.3     1  UNL1        0.0000
     15 C           4.2542    4.7065    7.6291 C.3     1  UNL1        0.0000
     16 C           6.6188    2.6563    7.8099 C.3     1  UNL1        0.0000
     17 C           6.9399    5.3097    6.2001 C.3     1  UNL1        0.0000
     18 H           6.7517    7.7762    8.5604 H       1  UNL1        0.0000
     19 H           4.2924    8.3070    7.1584 H       1  UNL1        0.0000
     20 H           3.3468   10.4489    6.3924 H       1  UNL1        0.0000
     21 H           2.9216   12.2650    8.0092 H       1  UNL1        0.0000
     22 H           3.4594   11.9315   10.3938 H       1  UNL1        0.0000
     23 H           4.3837    9.7879   11.1697 H       1  UNL1        0.0000
     24 H           8.8301    7.2727   11.6820 H       1  UNL1        0.0000
     25 H          10.4755    6.7596   11.3562 H       1  UNL1        0.0000
     26 H           9.3404    5.6437   12.0848 H       1  UNL1        0.0000
     27 H           9.7206    3.9313    8.1800 H       1  UNL1        0.0000
     28 H           9.2553    3.3614    9.7713 H       1  UNL1        0.0000
     29 H          10.7888    4.1818    9.5461 H       1  UNL1        0.0000
     30 H           9.1357    6.9773    7.3589 H       1  UNL1        0.0000
     31 H          10.6078    7.1388    8.2957 H       1  UNL1        0.0000
     32 H           9.2267    8.1513    8.6590 H       1  UNL1        0.0000
     33 H           3.7580    3.9490    8.2305 H       1  UNL1        0.0000
     34 H           3.8898    4.6180    6.6100 H       1  UNL1        0.0000
     35 H           3.9628    5.6861    8.0155 H       1  UNL1        0.0000
     36 H           6.3149    2.2103    8.7503 H       1  UNL1        0.0000
     37 H           7.6868    2.5067    7.7004 H       1  UNL1        0.0000
     38 H           6.1261    2.1116    7.0115 H       1  UNL1        0.0000
     39 H           8.0122    5.1447    6.1722 H       1  UNL1        0.0000
     40 H           6.7656    6.3809    6.1787 H       1  UNL1        0.0000
     41 H           6.5213    4.8906    5.2904 H       1  UNL1        0.0000
@<TRIPOS>BOND
     1    41    17    1
     2    39    17    1
     3    40    17    1
     4    17     3    1
     5    20     8    1
     6    34    15    1
     7    38    16    1
     8    19     7    1
     9    30    14    1
    10     8     7   ar
    11     8     9   ar
    12    15     3    1
    13    15    35    1
    14    15    33    1
    15    37    16    1
    16     3    16    1
    17     3     1    1
    18    16    36    1
    19     7     6   ar
    20    21     9    1
    21    27    13    1
    22    31    14    1
    23     9    10   ar
    24    14    32    1
    25    14     2    1
    26    18     5    1
    27     5     4    2
    28     5     1    1
    29     6     4    1
    30     6    11   ar
    31    13    29    1
    32    13     2    1
    33    13    28    1
    34     2     1    1
    35     2    12    1
    36    10    11   ar
    37    10    22    1
    38    11    23    1
    39    12    25    1
    40    12    24    1
    41    12    26    1
