@<TRIPOS>MOLECULE
2,6
 34 34 0 0 0
SMALL
GASTEIGER

@<TRIPOS>ATOM
      1 SI          9.7826    7.5611   10.2977 Si      1  UNL1        0.0000
      2 C          10.5791    7.2357   11.9971 C.3     1  UNL1        0.0000
      3 C          11.4366    6.0633   12.2136 C.2     1  UNL1        0.0000
      4 C          11.2521    5.6038   13.4991 C.2     1  UNL1        0.0000
      5 C          10.2782    6.4209   14.1495 C.2     1  UNL1        0.0000
      6 C           9.8387    7.3858   13.2643 C.2     1  UNL1        0.0000
      7 C          12.2318    5.3735   11.1433 C.3     1  UNL1        0.0000
      8 H          11.6643    4.5297   10.7457 H       1  UNL1        0.0000
      9 H          13.1670    4.9753   11.5354 H       1  UNL1        0.0000
     10 H          12.4588    6.0457   10.3207 H       1  UNL1        0.0000
     11 C          11.9154    4.4337   14.1539 C.3     1  UNL1        0.0000
     12 H          12.5361    3.8885   13.4481 H       1  UNL1        0.0000
     13 H          11.1657    3.7480   14.5480 H       1  UNL1        0.0000
     14 H          12.5413    4.7561   14.9880 H       1  UNL1        0.0000
     15 C           9.8216    6.1956   15.5573 C.3     1  UNL1        0.0000
     16 H           9.1095    5.3699   15.6024 H       1  UNL1        0.0000
     17 H           9.3352    7.0802   15.9635 H       1  UNL1        0.0000
     18 H          10.6652    5.9414   16.1982 H       1  UNL1        0.0000
     19 C           8.6469    8.2795   13.4722 C.3     1  UNL1        0.0000
     20 H           8.4684    8.4353   14.5353 H       1  UNL1        0.0000
     21 H           7.7551    7.8018   13.0606 H       1  UNL1        0.0000
     22 H           8.7600    9.2527   12.9976 H       1  UNL1        0.0000
     23 C          11.1738    8.0971    9.0622 C.3     1  UNL1        0.0000
     24 H          12.0174    8.5728    9.5790 H       1  UNL1        0.0000
     25 H          10.7904    8.8099    8.3382 H       1  UNL1        0.0000
     26 H          11.5613    7.2534    8.4984 H       1  UNL1        0.0000
     27 C           8.4499    8.9296   10.2443 C.3     1  UNL1        0.0000
     28 H           7.5175    8.5932   10.6847 H       1  UNL1        0.0000
     29 H           8.2390    9.2014    9.2134 H       1  UNL1        0.0000
     30 H           8.7567    9.8285   10.7704 H       1  UNL1        0.0000
     31 C           8.9672    5.9696    9.6093 C.3     1  UNL1        0.0000
     32 H           8.4533    6.1691    8.6747 H       1  UNL1        0.0000
     33 H           8.2395    5.5732   10.3095 H       1  UNL1        0.0000
     34 H           9.6970    5.1901    9.4233 H       1  UNL1        0.0000
@<TRIPOS>BOND
     1    25    23    1
     2    26    23    1
     3    32    31    1
     4    23    24    1
     5    23     1    1
     6    29    27    1
     7    34    31    1
     8    31     1    1
     9    31    33    1
    10    27     1    1
    11    27    28    1
    12    27    30    1
    13     1     2    1
    14    10     7    1
    15     8     7    1
    16     7     9    1
    17     7     3    1
    18     2     3    1
    19     2     6    1
    20     3     4    2
    21    22    19    1
    22    21    19    1
    23     6    19    1
    24     6     5    2
    25    12    11    1
    26    19    20    1
    27     4     5    1
    28     4    11    1
    29     5    15    1
    30    11    13    1
    31    11    14    1
    32    15    16    1
    33    15    17    1
    34    15    18    1
