@<TRIPOS>MOLECULE
2,6
 34 34 0 0 0
SMALL
GASTEIGER

@<TRIPOS>ATOM
      1 SI         14.6049    0.3203   11.4721 Si      1  UNL1        0.0000
      2 C          13.2502   -1.0175   11.4000 C.3     1  UNL1        0.0000
      3 C          13.0954   -1.9313   12.5525 C.2     1  UNL1        0.0000
      4 C          13.0761   -3.2279   12.1064 C.2     1  UNL1        0.0000
      5 C          13.2359   -3.2325   10.6858 C.2     1  UNL1        0.0000
      6 C          13.3480   -1.9385   10.2467 C.2     1  UNL1        0.0000
      7 C          13.0338   -1.5026   13.9904 C.3     1  UNL1        0.0000
      8 H          13.9739   -1.7330   14.4966 H       1  UNL1        0.0000
      9 H          12.2417   -2.0297   14.5247 H       1  UNL1        0.0000
     10 H          12.8541   -0.4334   14.0713 H       1  UNL1        0.0000
     11 C          12.9179   -4.4700   12.9244 C.3     1  UNL1        0.0000
     12 H          12.8163   -4.2334   13.9804 H       1  UNL1        0.0000
     13 H          13.7851   -5.1192   12.7999 H       1  UNL1        0.0000
     14 H          12.0368   -5.0316   12.6088 H       1  UNL1        0.0000
     15 C          13.2920   -4.4794    9.8615 C.3     1  UNL1        0.0000
     16 H          14.2364   -5.0011   10.0260 H       1  UNL1        0.0000
     17 H          13.2111   -4.2536    8.8007 H       1  UNL1        0.0000
     18 H          12.4867   -5.1612   10.1347 H       1  UNL1        0.0000
     19 C          13.6217   -1.5295    8.8281 C.3     1  UNL1        0.0000
     20 H          12.9229   -2.0138    8.1433 H       1  UNL1        0.0000
     21 H          14.6281   -1.8333    8.5321 H       1  UNL1        0.0000
     22 H          13.5399   -0.4515    8.7049 H       1  UNL1        0.0000
     23 C          14.1220    1.8323   10.3817 C.3     1  UNL1        0.0000
     24 H          13.0854    2.1316   10.5564 H       1  UNL1        0.0000
     25 H          14.2446    1.6353    9.3212 H       1  UNL1        0.0000
     26 H          14.7508    2.6852   10.6188 H       1  UNL1        0.0000
     27 C          16.2810   -0.3733   10.8553 C.3     1  UNL1        0.0000
     28 H          16.2797   -0.5403    9.7838 H       1  UNL1        0.0000
     29 H          16.4979   -1.3240   11.3317 H       1  UNL1        0.0000
     30 H          17.0980    0.3050   11.0805 H       1  UNL1        0.0000
     31 C          14.9611    1.0863   13.1870 C.3     1  UNL1        0.0000
     32 H          15.2490    0.3441   13.9217 H       1  UNL1        0.0000
     33 H          14.1065    1.6333   13.5687 H       1  UNL1        0.0000
     34 H          15.7815    1.7920   13.0996 H       1  UNL1        0.0000
@<TRIPOS>BOND
     1    20    19    1
     2    21    19    1
     3    22    19    1
     4    17    15    1
     5    19     6    1
     6    25    23    1
     7    28    27    1
     8    15    16    1
     9    15    18    1
    10    15     5    1
    11     6     5    2
    12     6     2    1
    13    23    24    1
    14    23    26    1
    15    23     1    1
    16     5     4    1
    17    27    30    1
    18    27    29    1
    19    27     1    1
    20     2     1    1
    21     2     3    1
    22     1    31    1
    23     4     3    2
    24     4    11    1
    25     3     7    1
    26    14    11    1
    27    13    11    1
    28    11    12    1
    29    34    31    1
    30    31    33    1
    31    31    32    1
    32     7    10    1
    33     7     8    1
    34     7     9    1
