@<TRIPOS>MOLECULE
2,6
 34 34 0 0 0
SMALL
GASTEIGER

@<TRIPOS>ATOM
      1 SI          8.4666    0.4954   13.2152 Si      1  UNL1        0.0000
      2 C           9.9128    1.4329   12.4060 C.3     1  UNL1        0.0000
      3 C          10.8909    2.1355   13.2326 C.2     1  UNL1        0.0000
      4 C          11.2930    3.2810   12.5806 C.2     1  UNL1        0.0000
      5 C          10.5854    3.3840   11.3467 C.2     1  UNL1        0.0000
      6 C           9.7426    2.2963   11.2251 C.2     1  UNL1        0.0000
      7 C          11.2562    1.7631   14.6399 C.3     1  UNL1        0.0000
      8 H          12.3238    1.8819   14.8259 H       1  UNL1        0.0000
      9 H          10.9771    0.7376   14.8627 H       1  UNL1        0.0000
     10 H          10.7338    2.4151   15.3431 H       1  UNL1        0.0000
     11 C          12.2904    4.2919   13.0505 C.3     1  UNL1        0.0000
     12 H          12.6329    4.0646   14.0564 H       1  UNL1        0.0000
     13 H          11.8479    5.2882   13.0579 H       1  UNL1        0.0000
     14 H          13.1586    4.3201   12.3891 H       1  UNL1        0.0000
     15 C          10.7517    4.5368   10.4047 C.3     1  UNL1        0.0000
     16 H          10.4344    5.4634   10.8852 H       1  UNL1        0.0000
     17 H          10.1556    4.4088    9.5036 H       1  UNL1        0.0000
     18 H          11.7980    4.6617   10.1178 H       1  UNL1        0.0000
     19 C           8.6664    2.1145   10.1885 C.3     1  UNL1        0.0000
     20 H           8.9266    2.6299    9.2658 H       1  UNL1        0.0000
     21 H           7.7282    2.5443   10.5479 H       1  UNL1        0.0000
     22 H           8.4997    1.0594    9.9698 H       1  UNL1        0.0000
     23 C           7.6051    1.6057   14.5172 C.3     1  UNL1        0.0000
     24 H           7.2594    2.5319   14.0707 H       1  UNL1        0.0000
     25 H           8.2782    1.8668   15.3255 H       1  UNL1        0.0000
     26 H           6.7461    1.1054   14.9519 H       1  UNL1        0.0000
     27 C           7.0997   -0.1291   12.0313 C.3     1  UNL1        0.0000
     28 H           7.5281   -0.7397   11.2426 H       1  UNL1        0.0000
     29 H           6.5365    0.6775   11.5762 H       1  UNL1        0.0000
     30 H           6.3943   -0.7463   12.5803 H       1  UNL1        0.0000
     31 C           9.1168   -1.0915   14.0970 C.3     1  UNL1        0.0000
     32 H           9.4355   -0.9020   15.1178 H       1  UNL1        0.0000
     33 H           9.9592   -1.5264   13.5518 H       1  UNL1        0.0000
     34 H           8.3360   -1.8445   14.1437 H       1  UNL1        0.0000
@<TRIPOS>BOND
     1    20    19    1
     2    17    15    1
     3    22    19    1
     4    18    15    1
     5    19    21    1
     6    19     6    1
     7    15    16    1
     8    15     5    1
     9     6     5    2
    10     6     2    1
    11    28    27    1
    12     5     4    1
    13    29    27    1
    14    27    30    1
    15    27     1    1
    16    14    11    1
    17     2     1    1
    18     2     3    1
    19     4    11    1
    20     4     3    2
    21    11    13    1
    22    11    12    1
    23     1    31    1
    24     1    23    1
    25     3     7    1
    26    33    31    1
    27    24    23    1
    28    31    34    1
    29    31    32    1
    30    23    26    1
    31    23    25    1
    32     7     8    1
    33     7     9    1
    34     7    10    1
