@<TRIPOS>MOLECULE
2,6
 34 34 0 0 0
SMALL
GASTEIGER

@<TRIPOS>ATOM
      1 SI         14.8202    8.1748   14.1925 Si      1  UNL1        0.0000
      2 C          14.1884    9.1736   12.7066 C.3     1  UNL1        0.0000
      3 C          14.6233    8.9611   11.3171 C.2     1  UNL1        0.0000
      4 C          14.7600   10.1848   10.6893 C.2     1  UNL1        0.0000
      5 C          14.4571   11.2182   11.6243 C.2     1  UNL1        0.0000
      6 C          14.1288   10.6406   12.8329 C.2     1  UNL1        0.0000
      7 C          15.0097    7.6404   10.7169 C.3     1  UNL1        0.0000
      8 H          16.0974    7.5473   10.6860 H       1  UNL1        0.0000
      9 H          14.6503    7.5512    9.6907 H       1  UNL1        0.0000
     10 H          14.6120    6.8150   11.2977 H       1  UNL1        0.0000
     11 C          15.1952   10.3959    9.2719 C.3     1  UNL1        0.0000
     12 H          14.9193    9.5469    8.6483 H       1  UNL1        0.0000
     13 H          16.2792   10.5116    9.2173 H       1  UNL1        0.0000
     14 H          14.7436   11.2923    8.8495 H       1  UNL1        0.0000
     15 C          14.4934   12.6929   11.3781 C.3     1  UNL1        0.0000
     16 H          15.3414   13.1457   11.8952 H       1  UNL1        0.0000
     17 H          13.5835   13.1569   11.7591 H       1  UNL1        0.0000
     18 H          14.5854   12.9182   10.3185 H       1  UNL1        0.0000
     19 C          13.8651   11.4327   14.0816 C.3     1  UNL1        0.0000
     20 H          13.0859   12.1744   13.8964 H       1  UNL1        0.0000
     21 H          14.7678   11.9734   14.3761 H       1  UNL1        0.0000
     22 H          13.5572   10.7988   14.9108 H       1  UNL1        0.0000
     23 C          16.3519    8.9988   14.9923 C.3     1  UNL1        0.0000
     24 H          16.1394   10.0088   15.3246 H       1  UNL1        0.0000
     25 H          17.1702    9.0567   14.2817 H       1  UNL1        0.0000
     26 H          16.6993    8.4332   15.8513 H       1  UNL1        0.0000
     27 C          13.4052    8.0643   15.5032 C.3     1  UNL1        0.0000
     28 H          12.4172    8.0171   15.0238 H       1  UNL1        0.0000
     29 H          13.4095    8.9127   16.1816 H       1  UNL1        0.0000
     30 H          13.5101    7.1730   16.1145 H       1  UNL1        0.0000
     31 C          15.3079    6.3605   13.8348 C.3     1  UNL1        0.0000
     32 H          16.1249    6.2892   13.1266 H       1  UNL1        0.0000
     33 H          14.4723    5.7833   13.4543 H       1  UNL1        0.0000
     34 H          15.6362    5.8880   14.7554 H       1  UNL1        0.0000
@<TRIPOS>BOND
     1    12    11    1
     2    14    11    1
     3    13    11    1
     4    11     4    1
     5     9     7    1
     6    18    15    1
     7     8     7    1
     8     4     3    2
     9     4     5    1
    10     7    10    1
    11     7     3    1
    12     3     2    1
    13    15     5    1
    14    15    17    1
    15    15    16    1
    16     5     6    2
    17     2     6    1
    18     2     1    1
    19     6    19    1
    20    32    31    1
    21    33    31    1
    22    31     1    1
    23    31    34    1
    24    20    19    1
    25    19    21    1
    26    19    22    1
    27     1    23    1
    28     1    27    1
    29    25    23    1
    30    23    24    1
    31    23    26    1
    32    28    27    1
    33    27    30    1
    34    27    29    1
