@<TRIPOS>MOLECULE
2,5
 33 33 0 0 0
SMALL
GASTEIGER

@<TRIPOS>ATOM
      1 SI         15.2743    6.9270    2.9863 Si      1  UNL1        0.0000
      2 C          14.7475    2.4003    3.3393 C.2     1  UNL1        0.0000
      3 C          15.0065    3.6749    3.1217 C.2     1  UNL1        0.0000
      4 C          15.2814    4.2611    1.8221 C.2     1  UNL1        0.0000
      5 C          14.5746    1.0846    2.9775 C.3     1  UNL1        0.0000
      6 C          15.3717    3.3447    0.6680 C.ar    1  UNL1        0.0000
      7 C          15.4075    5.5905    1.6604 C.2     1  UNL1        0.0000
      8 C          14.5681    3.5448   -0.4498 C.ar    1  UNL1        0.0000
      9 C          16.3325    1.4182   -0.4109 C.ar    1  UNL1        0.0000
     10 C          16.2591    2.2736    0.6728 C.ar    1  UNL1        0.0000
     11 C          14.6345    2.6828   -1.5285 C.ar    1  UNL1        0.0000
     12 C          15.6812    8.5833    2.1321 C.3     1  UNL1        0.0000
     13 C          15.5149    1.6142   -1.5111 C.ar    1  UNL1        0.0000
     14 C          13.4955    7.0153    3.6853 C.3     1  UNL1        0.0000
     15 C          16.5157    6.6762    4.4222 C.3     1  UNL1        0.0000
     16 H          15.6037    5.9346    0.6511 H       1  UNL1        0.0000
     17 H          14.9679    4.3759    3.9471 H       1  UNL1        0.0000
     18 H          13.6927    0.7977    2.4078 H       1  UNL1        0.0000
     19 H          15.4449    0.4570    2.7996 H       1  UNL1        0.0000
     20 H          13.8823    4.3791   -0.4634 H       1  UNL1        0.0000
     21 H          13.9979    2.8445   -2.3868 H       1  UNL1        0.0000
     22 H          15.5671    0.9404   -2.3540 H       1  UNL1        0.0000
     23 H          17.0319    0.5941   -0.3951 H       1  UNL1        0.0000
     24 H          16.9091    2.1283    1.5216 H       1  UNL1        0.0000
     25 H          13.3923    7.8253    4.4014 H       1  UNL1        0.0000
     26 H          13.2108    6.0976    4.1913 H       1  UNL1        0.0000
     27 H          12.7721    7.1867    2.8933 H       1  UNL1        0.0000
     28 H          15.5982    9.4157    2.8241 H       1  UNL1        0.0000
     29 H          15.0062    8.7787    1.3046 H       1  UNL1        0.0000
     30 H          16.6927    8.5861    1.7375 H       1  UNL1        0.0000
     31 H          16.6520    7.5973    4.9816 H       1  UNL1        0.0000
     32 H          17.4900    6.3759    4.0471 H       1  UNL1        0.0000
     33 H          16.1904    5.9161    5.1265 H       1  UNL1        0.0000
@<TRIPOS>BOND
     1    21    11    1
     2    22    13    1
     3    11    13   ar
     4    11     8   ar
     5    13     9   ar
     6    20     8    1
     7     8     6   ar
     8     9    23    1
     9     9    10   ar
    10    16     7    1
    11     6    10   ar
    12     6     4    1
    13    10    24    1
    14    29    12    1
    15     7     4    2
    16     7     1    1
    17    30    12    1
    18     4     3    1
    19    12    28    1
    20    12     1    1
    21    18     5    1
    22    19     5    1
    23    27    14    1
    24     5     2    1
    25     1    14    1
    26     1    15    1
    27     3     2    2
    28     3    17    1
    29    14    26    1
    30    14    25    1
    31    32    15    1
    32    15    31    1
    33    15    33    1
