@<TRIPOS>MOLECULE
3,6
 52 53 0 0 0
SMALL
GASTEIGER

@<TRIPOS>ATOM
      1 SI          7.4128    4.0400    9.4156 Si      1  UNL1        0.0000
      2 SI          7.4336   10.5900    9.8826 Si      1  UNL1        0.0000
      3 C           7.3663    5.9253    9.5465 C.2     1  UNL1        0.0000
      4 C           6.1922    6.5903    9.5610 C.2     1  UNL1        0.0000
      5 C           6.1969    8.0530    9.6610 C.2     1  UNL1        0.0000
      6 C           7.3749    8.7053    9.7486 C.2     1  UNL1        0.0000
      7 C           9.1451    3.3968    8.8865 C.3     1  UNL1        0.0000
      8 C           6.2126    3.3214    8.1036 C.3     1  UNL1        0.0000
      9 C           7.0042    3.1732   11.0813 C.3     1  UNL1        0.0000
     10 C           6.1653   11.3221   11.1211 C.3     1  UNL1        0.0000
     11 C           7.1336   11.4605    8.1959 C.3     1  UNL1        0.0000
     12 C           9.1384   11.2143   10.5138 C.3     1  UNL1        0.0000
     13 C           4.8565    5.9499    9.4777 C.ar    1  UNL1        0.0000
     14 C           4.1345    5.9866    8.2901 C.ar    1  UNL1        0.0000
     15 C           2.8778    5.4161    8.2164 C.ar    1  UNL1        0.0000
     16 C           2.3236    4.8082    9.3307 C.ar    1  UNL1        0.0000
     17 C           3.0320    4.7760   10.5195 C.ar    1  UNL1        0.0000
     18 C           4.2902    5.3455   10.5930 C.ar    1  UNL1        0.0000
     19 C           4.8653    8.7072    9.6596 C.ar    1  UNL1        0.0000
     20 C           4.3766    9.3147    8.5098 C.ar    1  UNL1        0.0000
     21 C           3.1214    9.8952    8.5022 C.ar    1  UNL1        0.0000
     22 C           2.3384    9.8716    9.6435 C.ar    1  UNL1        0.0000
     23 C           2.8153    9.2614   10.7917 C.ar    1  UNL1        0.0000
     24 C           4.0690    8.6795   10.7989 C.ar    1  UNL1        0.0000
     25 H           9.2072    2.3270    9.0636 H       1  UNL1        0.0000
     26 H           9.9564    3.8628    9.4369 H       1  UNL1        0.0000
     27 H           9.3276    3.5543    7.8280 H       1  UNL1        0.0000
     28 H           5.1924    3.2980    8.4699 H       1  UNL1        0.0000
     29 H           6.4937    2.3060    7.8409 H       1  UNL1        0.0000
     30 H           6.2150    3.9095    7.1909 H       1  UNL1        0.0000
     31 H           5.9322    3.1379   11.2438 H       1  UNL1        0.0000
     32 H           7.4509    3.6772   11.9329 H       1  UNL1        0.0000
     33 H           7.3666    2.1495   11.0795 H       1  UNL1        0.0000
     34 H           6.1122   10.7384   12.0351 H       1  UNL1        0.0000
     35 H           5.1677   11.3499   10.6971 H       1  UNL1        0.0000
     36 H           6.4375   12.3370   11.3947 H       1  UNL1        0.0000
     37 H           7.6193   10.9477    7.3712 H       1  UNL1        0.0000
     38 H           7.5118   12.4782    8.2169 H       1  UNL1        0.0000
     39 H           6.0732   11.5126    7.9732 H       1  UNL1        0.0000
     40 H           9.2535   11.0606   11.5823 H       1  UNL1        0.0000
     41 H           9.2256   12.2820   10.3354 H       1  UNL1        0.0000
     42 H           9.9756   10.7343   10.0168 H       1  UNL1        0.0000
     43 H           4.5690    6.4608    7.4218 H       1  UNL1        0.0000
     44 H           2.3262    5.4458    7.2878 H       1  UNL1        0.0000
     45 H           1.3406    4.3640    9.2731 H       1  UNL1        0.0000
     46 H           2.5998    4.3083   11.3929 H       1  UNL1        0.0000
     47 H           4.8408    5.3339   11.5227 H       1  UNL1        0.0000
     48 H           4.9854    9.3200    7.6170 H       1  UNL1        0.0000
     49 H           2.7498   10.3648    7.6023 H       1  UNL1        0.0000
     50 H           1.3576   10.3243    9.6375 H       1  UNL1        0.0000
     51 H           2.2056    9.2384   11.6835 H       1  UNL1        0.0000
     52 H           4.4431    8.2030   11.6938 H       1  UNL1        0.0000
@<TRIPOS>BOND
     1    30     8    1
     2    44    15    1
     3    37    11    1
     4    43    14    1
     5    49    21    1
     6    48    20    1
     7    27     7    1
     8    29     8    1
     9    39    11    1
    10     8    28    1
    11     8     1    1
    12    11    38    1
    13    11     2    1
    14    15    14   ar
    15    15    16   ar
    16    14    13   ar
    17    21    20   ar
    18    21    22   ar
    19    20    19   ar
    20     7    25    1
    21     7     1    1
    22     7    26    1
    23    45    16    1
    24    16    17   ar
    25     1     3    1
    26     1     9    1
    27    13     4    1
    28    13    18   ar
    29     3     4    2
    30     4     5    1
    31    50    22    1
    32    22    23   ar
    33    19     5    1
    34    19    24   ar
    35     5     6    2
    36     6     2    1
    37     2    12    1
    38     2    10    1
    39    42    12    1
    40    41    12    1
    41    12    40    1
    42    17    18   ar
    43    17    46    1
    44    18    47    1
    45    35    10    1
    46    23    24   ar
    47    23    51    1
    48    24    52    1
    49    33     9    1
    50     9    31    1
    51     9    32    1
    52    10    36    1
    53    10    34    1
