@<TRIPOS>MOLECULE
6,8
 39 40 0 0 0
SMALL
GASTEIGER

@<TRIPOS>ATOM
      1 C           6.0153   13.9707    4.0920 C.3     1  UNL1        0.0000
      2 H           7.0464   13.7053    4.3276 H       1  UNL1        0.0000
      3 H           5.9958   15.0475    3.9219 H       1  UNL1        0.0000
      4 H           5.7030   13.4512    3.1745 H       1  UNL1        0.0000
      5 C           5.1112   13.6218    5.2498 C.2     1  UNL1        0.0000
      6 C           4.1547   12.6922    5.1483 C.2     1  UNL1        0.0000
      7 SI          3.0249   12.0867    6.5335 Si      1  UNL1        0.0000
      8 C           2.2154   10.7141    5.4317 C.2     1  UNL1        0.0000
      9 C           1.5999    9.8489    4.8293 C.1     1  UNL1        0.0000
     10 C           3.8825   11.1746    7.9733 C.3     1  UNL1        0.0000
     11 H           3.1665   10.6362    8.5859 H       1  UNL1        0.0000
     12 H           4.3939   11.8876    8.6121 H       1  UNL1        0.0000
     13 H           4.6216   10.4619    7.6169 H       1  UNL1        0.0000
     14 C           1.5433   13.1310    7.1321 C.3     1  UNL1        0.0000
     15 H           0.7574   12.4960    7.5306 H       1  UNL1        0.0000
     16 H           1.1149   13.7274    6.3311 H       1  UNL1        0.0000
     17 H           1.8519   13.8085    7.9211 H       1  UNL1        0.0000
     18 C           5.3678   14.3864    6.4933 C.ar    1  UNL1        0.0000
     19 C           4.3832   15.2178    7.0167 C.ar    1  UNL1        0.0000
     20 H           3.4499   15.3288    6.4839 H       1  UNL1        0.0000
     21 C           4.6072   15.9170    8.1888 C.ar    1  UNL1        0.0000
     22 H           3.8410   16.5692    8.5807 H       1  UNL1        0.0000
     23 C           5.8133   15.7852    8.8562 C.ar    1  UNL1        0.0000
     24 H           5.9874   16.3284    9.7721 H       1  UNL1        0.0000
     25 C           6.7987   14.9596    8.3408 C.ar    1  UNL1        0.0000
     26 H           7.7410   14.8558    8.8568 H       1  UNL1        0.0000
     27 C           6.5818   14.2689    7.1622 C.ar    1  UNL1        0.0000
     28 H           7.3521   13.6214    6.7692 H       1  UNL1        0.0000
     29 C           0.8089    8.8280    4.2300 C.2     1  UNL1        0.0000
     30 C           1.2810    7.5145    4.1463 C.2     1  UNL1        0.0000
     31 H           2.2572    7.2682    4.5392 H       1  UNL1        0.0000
     32 C           0.4876    6.5337    3.5823 C.2     1  UNL1        0.0000
     33 H           0.8535    5.5204    3.5205 H       1  UNL1        0.0000
     34 C          -0.7753    6.8461    3.1024 C.3     1  UNL1        0.0000
     35 H          -1.3899    6.0761    2.6632 H       1  UNL1        0.0000
     36 C          -1.2541    8.1443    3.1965 C.2     1  UNL1        0.0000
     37 H          -2.2419    8.3838    2.8346 H       1  UNL1        0.0000
     38 C          -0.4715    9.1353    3.7569 C.2     1  UNL1        0.0000
     39 H          -0.8442   10.1459    3.8464 H       1  UNL1        0.0000
@<TRIPOS>BOND
     1    35    34    1
     2    37    36    1
     3    34    36    1
     4    34    32    1
     5     4     1    1
     6    36    38    2
     7    33    32    1
     8    32    30    2
     9    38    39    1
    10    38    29    1
    11     3     1    1
    12     1     2    1
    13     1     5    1
    14    30    29    1
    15    30    31    1
    16    29     9    2
    17     9     8    2
    18     6     5    2
    19     6     7    1
    20     5    18    1
    21     8     7    1
    22    16    14    1
    23    20    19    1
    24    18    19   ar
    25    18    27   ar
    26     7    14    1
    27     7    10    1
    28    28    27    1
    29    19    21   ar
    30    14    15    1
    31    14    17    1
    32    27    25   ar
    33    13    10    1
    34    10    11    1
    35    10    12    1
    36    21    22    1
    37    21    23   ar
    38    25    23   ar
    39    25    26    1
    40    23    24    1
