@<TRIPOS>MOLECULE
5,6
 54 59 0 0 0
SMALL
GASTEIGER

@<TRIPOS>ATOM
      1 N           4.8504    0.7534    6.1203 N.pl3   1  UNL1       -0.3039
      2 N           5.6618   -0.6907    4.7153 N.pl3   1  UNL1       -0.2693
      3 N           7.9220    1.5550    3.2838 N.pl3   1  UNL1       -0.2693
      4 N           6.9863    1.6498    1.3240 N.pl3   1  UNL1       -0.3039
      5 C           5.2995    0.6239    4.8383 C.3     1  UNL1        0.1919
      6 C           6.7110    1.5659    2.6564 C.3     1  UNL1        0.1919
      7 C           4.4512    1.9613    6.7845 C.3     1  UNL1        0.0029
      8 H           4.4933    2.7852    6.0822 H       1  UNL1        0.0428
      9 H           5.1269    2.1591    7.6209 H       1  UNL1        0.0428
     10 H           3.4347    1.8616    7.1711 H       1  UNL1        0.0428
     11 C           4.9223   -0.4432    6.7947 C.ar    1  UNL1        0.0529
     12 C           4.5975   -0.8095    8.0905 C.ar    1  UNL1       -0.0388
     13 H           4.1875   -0.1022    8.7940 H       1  UNL1        0.0637
     14 C           4.8198   -2.1286    8.4486 C.ar    1  UNL1       -0.0599
     15 H           4.5764   -2.4509    9.4497 H       1  UNL1        0.0618
     16 C           5.3493   -3.0495    7.5498 C.ar    1  UNL1       -0.0599
     17 H           5.5064   -4.0678    7.8713 H       1  UNL1        0.0618
     18 C           5.6780   -2.6897    6.2538 C.ar    1  UNL1       -0.0385
     19 H           6.0887   -3.3999    5.5532 H       1  UNL1        0.0637
     20 C           5.4521   -1.3730    5.8907 C.ar    1  UNL1        0.0572
     21 C           6.4732   -1.2673    3.7067 C.ar    1  UNL1        0.0439
     22 C           5.9671   -2.0699    2.7008 C.ar    1  UNL1       -0.0397
     23 H           4.9019   -2.2049    2.6124 H       1  UNL1        0.0636
     24 C           6.8430   -2.6555    1.8003 C.ar    1  UNL1       -0.0600
     25 H           6.4540   -3.2685    1.0018 H       1  UNL1        0.0618
     26 C           8.2083   -2.4629    1.9217 C.ar    1  UNL1       -0.0611
     27 H           8.8844   -2.9231    1.2166 H       1  UNL1        0.0618
     28 C           8.7164   -1.6781    2.9443 C.ar    1  UNL1       -0.0522
     29 H           9.7807   -1.5214    3.0405 H       1  UNL1        0.0624
     30 C           7.8513   -1.0836    3.8469 C.ar    1  UNL1        0.0053
     31 C           8.2754   -0.1573    4.9187 C.ar    1  UNL1        0.0053
     32 C           8.6223   -0.5626    6.1970 C.ar    1  UNL1       -0.0522
     33 H           8.6684   -1.6161    6.4300 H       1  UNL1        0.0624
     34 C           8.9017    0.3850    7.1684 C.ar    1  UNL1       -0.0611
     35 H           9.1708    0.0654    8.1639 H       1  UNL1        0.0618
     36 C           8.8346    1.7347    6.8673 C.ar    1  UNL1       -0.0600
     37 H           9.0569    2.4680    7.6280 H       1  UNL1        0.0618
     38 C           8.4945    2.1511    5.5903 C.ar    1  UNL1       -0.0397
     39 H           8.4559    3.1951    5.3292 H       1  UNL1        0.0636
     40 C           8.1963    1.2061    4.6258 C.ar    1  UNL1        0.0439
     41 C           8.9455    1.6321    2.3674 C.ar    1  UNL1        0.0572
     42 C          10.3213    1.6274    2.5128 C.ar    1  UNL1       -0.0385
     43 H          10.7800    1.5573    3.4871 H       1  UNL1        0.0637
     44 C          11.0779    1.7192    1.3558 C.ar    1  UNL1       -0.0599
     45 H          12.1549    1.7249    1.4271 H       1  UNL1        0.0618
     46 C          10.4806    1.8081    0.1032 C.ar    1  UNL1       -0.0599
     47 H          11.1056    1.8845   -0.7735 H       1  UNL1        0.0618
     48 C           9.1036    1.8013   -0.0473 C.ar    1  UNL1       -0.0388
     49 H           8.6507    1.8701   -1.0240 H       1  UNL1        0.0637
     50 C           8.3402    1.7070    1.1052 C.ar    1  UNL1        0.0529
     51 C           6.0179    1.6361    0.2635 C.3     1  UNL1        0.0029
     52 H           5.0889    1.2058    0.6372 H       1  UNL1        0.0428
     53 H           6.3843    1.0145   -0.5538 H       1  UNL1        0.0428
     54 H           5.8336    2.6448   -0.1146 H       1  UNL1        0.0428
@<TRIPOS>BOND
     1    49    48    1
     2    47    46    1
     3    53    51    1
     4    54    51    1
     5    48    46   ar
     6    48    50   ar
     7    46    44   ar
     8    51    52    1
     9    51     4    1
    10    25    24    1
    11    50     4    1
    12    50    41   ar
    13    27    26    1
    14     4     6    1
    15    44    45    1
    16    44    42   ar
    17    24    26   ar
    18    24    22   ar
    19    26    28   ar
    20    41    42   ar
    21    41     3    1
    22    42    43    1
    23    23    22    1
    24     6     3    1
    25    22    21   ar
    26    28    29    1
    27    28    30   ar
    28     3    40    1
    29    21    30   ar
    30    21     2    1
    31    30    31    1
    32    40    31   ar
    33    40    38   ar
    34     2     5    1
    35     2    20    1
    36     5     1    1
    37    31    32   ar
    38    39    38    1
    39    19    18    1
    40    38    36   ar
    41    20    18   ar
    42    20    11   ar
    43     8     7    1
    44     1     7    1
    45     1    11    1
    46    32    33    1
    47    32    34   ar
    48    18    16   ar
    49     7    10    1
    50     7     9    1
    51    11    12   ar
    52    36    34   ar
    53    36    37    1
    54    34    35    1
    55    16    17    1
    56    16    14   ar
    57    12    14   ar
    58    12    13    1
    59    14    15    1
