@<TRIPOS>MOLECULE
3,30
 54 59 0 0 0
SMALL
GASTEIGER

@<TRIPOS>ATOM
      1 N          15.8687    8.2003    6.5022 N.pl3   1  UNL1       -0.2693
      2 N          14.1344    9.3637    7.1172 N.pl3   1  UNL1       -0.3039
      3 C          15.0532    9.2377    6.1103 C.3     1  UNL1        0.1919
      4 C          15.4830    7.7069    7.7268 C.ar    1  UNL1        0.0572
      5 C          15.9776    6.6797    8.5097 C.ar    1  UNL1       -0.0385
      6 H          16.8261    6.0927    8.1925 H       1  UNL1        0.0637
      7 C          15.3388    6.4403    9.7173 C.ar    1  UNL1       -0.0599
      8 H          15.7000    5.6505   10.3587 H       1  UNL1        0.0618
      9 C          14.2444    7.1954   10.1197 C.ar    1  UNL1       -0.0599
     10 H          13.7759    6.9802   11.0683 H       1  UNL1        0.0618
     11 C          13.7394    8.2196    9.3327 C.ar    1  UNL1       -0.0388
     12 H          12.8901    8.8007    9.6563 H       1  UNL1        0.0637
     13 C          14.3732    8.4662    8.1268 C.ar    1  UNL1        0.0529
     14 C          12.9895   10.2256    7.0996 C.3     1  UNL1        0.0029
     15 H          12.8199   10.5432    6.0747 H       1  UNL1        0.0428
     16 H          13.1384   11.1018    7.7340 H       1  UNL1        0.0428
     17 H          12.1156    9.6762    7.4542 H       1  UNL1        0.0428
     18 C          16.7118    7.4462    5.6577 C.ar    1  UNL1        0.0439
     19 C          18.0937    7.4916    5.7314 C.ar    1  UNL1       -0.0397
     20 H          18.5727    8.1530    6.4360 H       1  UNL1        0.0636
     21 C          18.8502    6.6862    4.8959 C.ar    1  UNL1       -0.0600
     22 H          19.9280    6.7305    4.9424 H       1  UNL1        0.0618
     23 C          18.2316    5.8232    4.0079 C.ar    1  UNL1       -0.0611
     24 H          18.8253    5.2009    3.3553 H       1  UNL1        0.0618
     25 C          16.8494    5.7467    3.9598 C.ar    1  UNL1       -0.0522
     26 H          16.3619    5.0654    3.2780 H       1  UNL1        0.0624
     27 C          16.0850    6.5469    4.7927 C.ar    1  UNL1        0.0053
     28 N          14.8223    8.2004    3.0629 N.pl3   1  UNL1       -0.2693
     29 N          16.5567    9.3637    2.4479 N.pl3   1  UNL1       -0.3039
     30 C          15.6378    9.2377    3.4548 C.3     1  UNL1        0.1919
     31 C          15.2080    7.7070    1.8383 C.ar    1  UNL1        0.0572
     32 C          14.7134    6.6798    1.0554 C.ar    1  UNL1       -0.0385
     33 H          13.8648    6.0929    1.3725 H       1  UNL1        0.0637
     34 C          15.3523    6.4404   -0.1522 C.ar    1  UNL1       -0.0599
     35 H          14.9910    5.6506   -0.7936 H       1  UNL1        0.0618
     36 C          16.4466    7.1955   -0.5546 C.ar    1  UNL1       -0.0599
     37 H          16.9152    6.9802   -1.5032 H       1  UNL1        0.0618
     38 C          16.9517    8.2196    0.2324 C.ar    1  UNL1       -0.0388
     39 H          17.8011    8.8007   -0.0912 H       1  UNL1        0.0637
     40 C          16.3178    8.4663    1.4383 C.ar    1  UNL1        0.0529
     41 C          17.7015   10.2258    2.4655 C.3     1  UNL1        0.0029
     42 H          17.8712   10.5432    3.4905 H       1  UNL1        0.0428
     43 H          17.5524   11.1020    1.8313 H       1  UNL1        0.0428
     44 H          18.5753    9.6764    2.1108 H       1  UNL1        0.0428
     45 C          13.9791    7.4463    3.9073 C.ar    1  UNL1        0.0439
     46 C          12.5972    7.4919    3.8337 C.ar    1  UNL1       -0.0397
     47 H          12.1182    8.1533    3.1292 H       1  UNL1        0.0636
     48 C          11.8407    6.6865    4.6692 C.ar    1  UNL1       -0.0600
     49 H          10.7628    6.7309    4.6228 H       1  UNL1        0.0618
     50 C          12.4592    5.8233    5.5570 C.ar    1  UNL1       -0.0611
     51 H          11.8655    5.2010    6.2096 H       1  UNL1        0.0618
     52 C          13.8414    5.7467    5.6051 C.ar    1  UNL1       -0.0522
     53 H          14.3289    5.0653    6.2868 H       1  UNL1        0.0624
     54 C          14.6059    6.5470    4.7723 C.ar    1  UNL1        0.0053
@<TRIPOS>BOND
     1    37    36    1
     2    35    34    1
     3    36    34   ar
     4    36    38   ar
     5    34    32   ar
     6    39    38    1
     7    38    40   ar
     8    32    33    1
     9    32    31   ar
    10    40    31   ar
    11    40    29    1
    12    43    41    1
    13    31    28    1
    14    44    41    1
    15    29    41    1
    16    29    30    1
    17    41    42    1
    18    28    30    1
    19    28    45    1
    20    47    46    1
    21    26    25    1
    22    24    23    1
    23    46    45   ar
    24    46    48   ar
    25    45    54   ar
    26    25    23   ar
    27    25    27   ar
    28    23    21   ar
    29    49    48    1
    30    48    50   ar
    31    54    27    1
    32    54    52   ar
    33    27    18   ar
    34    21    22    1
    35    21    19   ar
    36    50    52   ar
    37    50    51    1
    38    52    53    1
    39    18    19   ar
    40    18     1    1
    41    19    20    1
    42    15    14    1
    43     3     1    1
    44     3     2    1
    45     1     4    1
    46    14     2    1
    47    14    17    1
    48    14    16    1
    49     2    13    1
    50     4    13   ar
    51     4     5   ar
    52    13    11   ar
    53     6     5    1
    54     5     7   ar
    55    11    12    1
    56    11     9   ar
    57     7     9   ar
    58     7     8    1
    59     9    10    1
