@<TRIPOS>MOLECULE
2,4
 30 30 0 0 0
SMALL
GASTEIGER

@<TRIPOS>ATOM
      1 SI          1.5569    7.0004   -0.2909 Si      1  UNL1        0.0000
      2 C          -0.1826    4.1722   -2.7532 C.2     1  UNL1        0.0000
      3 C          -0.0246    5.4704   -2.0863 C.2     1  UNL1        0.0000
      4 C           1.1122    5.5109   -1.3544 C.2     1  UNL1        0.0000
      5 C          -1.2227    3.8413   -3.5124 C.2     1  UNL1        0.0000
      6 C           0.2414    7.3023    1.0808 C.3     1  UNL1        0.0000
      7 C           1.6729    8.7305   -1.1199 C.3     1  UNL1        0.0000
      8 C           3.2726    6.7248    0.5318 C.3     1  UNL1        0.0000
      9 C          -1.0228    6.5505   -2.2699 C.ar    1  UNL1        0.0000
     10 C          -0.7502    7.6348   -3.0985 C.ar    1  UNL1        0.0000
     11 C          -1.6867    8.6338   -3.2924 C.ar    1  UNL1        0.0000
     12 C          -2.9165    8.5669   -2.6603 C.ar    1  UNL1        0.0000
     13 C          -3.2040    7.4886   -1.8409 C.ar    1  UNL1        0.0000
     14 C          -2.2690    6.4868   -1.6529 C.ar    1  UNL1        0.0000
     15 H          -2.0528    4.5221   -3.6882 H       1  UNL1        0.0000
     16 H          -1.3094    2.8859   -4.0141 H       1  UNL1        0.0000
     17 H           0.1716    6.4963    1.8051 H       1  UNL1        0.0000
     18 H           0.4711    8.2099    1.6312 H       1  UNL1        0.0000
     19 H          -0.7416    7.4302    0.6368 H       1  UNL1        0.0000
     20 H           2.3409    8.7516   -1.9743 H       1  UNL1        0.0000
     21 H           0.6975    9.0697   -1.4524 H       1  UNL1        0.0000
     22 H           2.0442    9.4568   -0.4015 H       1  UNL1        0.0000
     23 H           3.9970    7.4543    0.1828 H       1  UNL1        0.0000
     24 H           3.6647    5.7359    0.3124 H       1  UNL1        0.0000
     25 H           3.2145    6.8223    1.6110 H       1  UNL1        0.0000
     26 H           0.2070    7.6947   -3.5967 H       1  UNL1        0.0000
     27 H          -1.4563    9.4689   -3.9388 H       1  UNL1        0.0000
     28 H          -3.6477    9.3483   -2.8083 H       1  UNL1        0.0000
     29 H          -4.1639    7.4270   -1.3472 H       1  UNL1        0.0000
     30 H          -2.5028    5.6474   -1.0151 H       1  UNL1        0.0000
@<TRIPOS>BOND
     1    16     5    1
     2    27    11    1
     3    15     5    1
     4    26    10    1
     5     5     2    2
     6    11    10   ar
     7    11    12   ar
     8    10     9   ar
     9    28    12    1
    10     2     3    1
    11    12    13   ar
    12     9     3    1
    13     9    14   ar
    14     3     4    2
    15    20     7    1
    16    13    14   ar
    17    13    29    1
    18    14    30    1
    19    21     7    1
    20     4     1    1
    21     7    22    1
    22     7     1    1
    23     1     8    1
    24     1     6    1
    25    23     8    1
    26    24     8    1
    27     8    25    1
    28    19     6    1
    29     6    18    1
    30     6    17    1
