@<TRIPOS>MOLECULE
1,3
 14 14 0 0 0
SMALL
GASTEIGER

@<TRIPOS>ATOM
      1 CL         -2.7637    3.2180    6.8790 Cl      1  UNL1        0.0000
      2 CL         -0.0487    4.1306    6.4604 Cl      1  UNL1        0.0000
      3 B          -1.0736    2.6330    6.5253 B       1  UNL1        0.0000
      4 C          -0.5493    1.4084    7.3534 C.ar    1  UNL1        0.0000
      5 C          -1.4266    0.5490    8.0269 C.ar    1  UNL1        0.0000
      6 H          -2.4808    0.7849    8.0423 H       1  UNL1        0.0000
      7 C          -0.9734   -0.5702    8.6981 C.ar    1  UNL1        0.0000
      8 H          -1.6776   -1.2115    9.2077 H       1  UNL1        0.0000
      9 C           0.3789   -0.8667    8.7254 C.ar    1  UNL1        0.0000
     10 H           0.7347   -1.7416    9.2490 H       1  UNL1        0.0000
     11 C           1.2722   -0.0194    8.0913 C.ar    1  UNL1        0.0000
     12 H           2.3312   -0.2290    8.1243 H       1  UNL1        0.0000
     13 C           0.8147    1.0985    7.4219 C.ar    1  UNL1        0.0000
     14 H           1.5253    1.7609    6.9520 H       1  UNL1        0.0000
@<TRIPOS>BOND
     1     2     3    1
     2     3     1    1
     3     3     4    1
     4    14    13    1
     5     4    13   ar
     6     4     5   ar
     7    13    11   ar
     8     5     6    1
     9     5     7   ar
    10    11    12    1
    11    11     9   ar
    12     7     9   ar
    13     7     8    1
    14     9    10    1
