@<TRIPOS>MOLECULE
1,2
 40 40 0 0 0
SMALL
GASTEIGER

@<TRIPOS>ATOM
      1 SE         11.2370    3.1552   -0.3941 Se      1  UNL1        0.0000
      2 P          10.4596    5.0360   -1.1199 P.3     1  UNL1        0.0000
      3 C          10.7564    5.0010   -2.9142 C.ar    1  UNL1        0.0000
      4 C          11.5206    5.9662   -3.5557 C.ar    1  UNL1        0.0000
      5 C          11.7195    5.8920   -4.9230 C.ar    1  UNL1        0.0000
      6 C          11.1586    4.8570   -5.6521 C.ar    1  UNL1        0.0000
      7 C          10.4042    3.8859   -5.0111 C.ar    1  UNL1        0.0000
      8 C          10.2027    3.9551   -3.6463 C.ar    1  UNL1        0.0000
      9 N          11.2784    6.3927   -0.5614 N.3     1  UNL1        0.0000
     10 SI         10.3800    7.9185   -0.7024 Si      1  UNL1        0.0000
     11 C           8.6999    7.6029   -1.5269 C.3     1  UNL1        0.0000
     12 C          11.2967    9.1637   -1.8213 C.3     1  UNL1        0.0000
     13 C          10.1390    8.6224    1.0582 C.3     1  UNL1        0.0000
     14 SI         12.9268    6.2225    0.0828 Si      1  UNL1        0.0000
     15 C          13.9940    5.2335   -1.1472 C.3     1  UNL1        0.0000
     16 C          12.8467    5.4743    1.8383 C.3     1  UNL1        0.0000
     17 C          13.7433    7.9310    0.2789 C.3     1  UNL1        0.0000
     18 H          11.9593    6.7652   -2.9783 H       1  UNL1        0.0000
     19 H          12.3153    6.6440   -5.4200 H       1  UNL1        0.0000
     20 H          11.3126    4.8026   -6.7196 H       1  UNL1        0.0000
     21 H           9.9726    3.0734   -5.5761 H       1  UNL1        0.0000
     22 H           9.6243    3.1913   -3.1372 H       1  UNL1        0.0000
     23 H           8.2037    8.5409   -1.7574 H       1  UNL1        0.0000
     24 H           8.0316    7.0218   -0.8980 H       1  UNL1        0.0000
     25 H           8.8204    7.0591   -2.4611 H       1  UNL1        0.0000
     26 H          12.3747    9.0944   -1.7529 H       1  UNL1        0.0000
     27 H          11.0164   10.1714   -1.5349 H       1  UNL1        0.0000
     28 H          11.0186    9.0381   -2.8633 H       1  UNL1        0.0000
     29 H          10.0378    9.7017    1.0114 H       1  UNL1        0.0000
     30 H          10.9776    8.3988    1.7100 H       1  UNL1        0.0000
     31 H           9.2401    8.2377    1.5308 H       1  UNL1        0.0000
     32 H          13.4755    4.3513   -1.5143 H       1  UNL1        0.0000
     33 H          14.9088    4.8967   -0.6700 H       1  UNL1        0.0000
     34 H          14.2741    5.8330   -2.0095 H       1  UNL1        0.0000
     35 H          13.8507    5.2779    2.2023 H       1  UNL1        0.0000
     36 H          12.3077    4.5315    1.8559 H       1  UNL1        0.0000
     37 H          12.3725    6.1509    2.5457 H       1  UNL1        0.0000
     38 H          14.5544    7.8373    0.9916 H       1  UNL1        0.0000
     39 H          13.0705    8.6964    0.6430 H       1  UNL1        0.0000
     40 H          14.1787    8.2807   -0.6496 H       1  UNL1        0.0000
@<TRIPOS>BOND
     1    20     6    1
     2     6     7   ar
     3     6     5   ar
     4    21     7    1
     5    19     5    1
     6     7     8   ar
     7     5     4   ar
     8     8    22    1
     9     8     3   ar
    10     4    18    1
    11     4     3   ar
    12     3     2    1
    13    28    12    1
    14    25    11    1
    15    34    15    1
    16    12    26    1
    17    12    27    1
    18    12    10    1
    19    23    11    1
    20    11    24    1
    21    11    10    1
    22    32    15    1
    23    15    33    1
    24    15    14    1
    25     2     9    1
    26     2     1    1
    27    10     9    1
    28    10    13    1
    29    40    17    1
    30     9    14    1
    31    14    17    1
    32    14    16    1
    33    17    39    1
    34    17    38    1
    35    29    13    1
    36    13    31    1
    37    13    30    1
    38    16    36    1
    39    16    35    1
    40    16    37    1
