@<TRIPOS>MOLECULE
1,3,4,5,6,7
 44 46 0 0 0
SMALL
GASTEIGER

@<TRIPOS>ATOM
      1 P          -0.8889    1.3776    3.6780 P.3     1  UNL1        0.0000
      2 SI         -2.3417    3.8718    2.7916 Si      1  UNL1        0.0000
      3 C          -0.9226    3.6637    1.5668 C.2     1  UNL1        0.0000
      4 C          -0.9548    2.9163    0.3380 C.2     1  UNL1        0.0000
      5 C           0.3258    2.9461   -0.2154 C.2     1  UNL1        0.0000
      6 C           1.1552    3.7654    0.6168 C.2     1  UNL1        0.0000
      7 C           0.3735    4.2665    1.6654 C.3     1  UNL1        0.0000
      8 C          -3.9804    3.1838    2.1007 C.3     1  UNL1        0.0000
      9 C          -2.5620    5.6883    3.3258 C.3     1  UNL1        0.0000
     10 C          -1.8089    2.8311    4.3281 C.3     1  UNL1        0.0000
     11 C          -2.2728    0.2634    3.2564 C.ar    1  UNL1        0.0000
     12 C          -2.3740   -0.2053    1.9530 C.ar    1  UNL1        0.0000
     13 C          -3.4339   -1.0125    1.5791 C.ar    1  UNL1        0.0000
     14 C          -4.3992   -1.3578    2.5104 C.ar    1  UNL1        0.0000
     15 C          -4.2977   -0.9024    3.8159 C.ar    1  UNL1        0.0000
     16 C          -3.2393   -0.0957    4.1900 C.ar    1  UNL1        0.0000
     17 C          -0.2125    0.5675    5.1665 C.ar    1  UNL1        0.0000
     18 C          -0.3005   -0.8088    5.3511 C.ar    1  UNL1        0.0000
     19 C           0.3076   -1.4071    6.4400 C.ar    1  UNL1        0.0000
     20 C           1.0223   -0.6419    7.3465 C.ar    1  UNL1        0.0000
     21 C           1.1409    0.7252    7.1528 C.ar    1  UNL1        0.0000
     22 C           0.5360    1.3238    6.0640 C.ar    1  UNL1        0.0000
     23 H          -1.8396    2.4858   -0.1044 H       1  UNL1        0.0000
     24 H           0.6234    2.5343   -1.1681 H       1  UNL1        0.0000
     25 H           2.1609    4.0715    0.3686 H       1  UNL1        0.0000
     26 H           0.6675    5.0152    2.3849 H       1  UNL1        0.0000
     27 H          -3.8947    2.1371    1.8269 H       1  UNL1        0.0000
     28 H          -4.7750    3.2684    2.8354 H       1  UNL1        0.0000
     29 H          -4.2882    3.7374    1.2199 H       1  UNL1        0.0000
     30 H          -3.3257    5.7777    4.0910 H       1  UNL1        0.0000
     31 H          -2.8690    6.2961    2.4824 H       1  UNL1        0.0000
     32 H          -1.6454    6.1130    3.7208 H       1  UNL1        0.0000
     33 H          -2.6301    2.5141    4.9707 H       1  UNL1        0.0000
     34 H          -1.1110    3.4156    4.9289 H       1  UNL1        0.0000
     35 H          -1.6042    0.0763    1.2407 H       1  UNL1        0.0000
     36 H          -3.5091   -1.3727    0.5632 H       1  UNL1        0.0000
     37 H          -5.2295   -1.9856    2.2220 H       1  UNL1        0.0000
     38 H          -5.0473   -1.1794    4.5433 H       1  UNL1        0.0000
     39 H          -3.1537    0.2465    5.2126 H       1  UNL1        0.0000
     40 H          -0.8509   -1.4097    4.6405 H       1  UNL1        0.0000
     41 H           0.2278   -2.4755    6.5794 H       1  UNL1        0.0000
     42 H           1.4958   -1.1111    8.1964 H       1  UNL1        0.0000
     43 H           1.7125    1.3219    7.8490 H       1  UNL1        0.0000
     44 H           0.6506    2.3862    5.8967 H       1  UNL1        0.0000
@<TRIPOS>BOND
     1    24     5    1
     2     5     4    1
     3     5     6    2
     4    23     4    1
     5     4     3    2
     6    25     6    1
     7    36    13    1
     8     6     7    1
     9    29     8    1
    10    35    12    1
    11     3     7    1
    12     3     2    1
    13    13    12   ar
    14    13    14   ar
    15     7    26    1
    16    27     8    1
    17    12    11   ar
    18     8     2    1
    19     8    28    1
    20    37    14    1
    21    31     9    1
    22    14    15   ar
    23     2     9    1
    24     2    10    1
    25    11     1    1
    26    11    16   ar
    27     9    32    1
    28     9    30    1
    29     1    10    1
    30     1    17    1
    31    15    16   ar
    32    15    38    1
    33    16    39    1
    34    10    34    1
    35    10    33    1
    36    40    18    1
    37    17    18   ar
    38    17    22   ar
    39    18    19   ar
    40    44    22    1
    41    22    21   ar
    42    19    41    1
    43    19    20   ar
    44    21    20   ar
    45    21    43    1
    46    20    42    1
