@<TRIPOS>MOLECULE
1,4,5,6,7
 44 46 0 0 0
SMALL
GASTEIGER

@<TRIPOS>ATOM
      1 P          -4.4753   11.0156  -16.1955 P.3     1  UNL1        0.0000
      2 SI         -6.3679   12.6041  -14.4384 Si      1  UNL1        0.0000
      3 C          -5.9673   13.7366  -15.8927 C.3     1  UNL1        0.0000
      4 C          -4.8960   14.6839  -15.9730 C.2     1  UNL1        0.0000
      5 C          -4.8812   15.2030  -17.2721 C.2     1  UNL1        0.0000
      6 C          -6.0170   14.6709  -17.9804 C.2     1  UNL1        0.0000
      7 C          -6.7205   13.8324  -17.1081 C.2     1  UNL1        0.0000
      8 C          -8.2164   12.6519  -13.9789 C.3     1  UNL1        0.0000
      9 C          -5.2920   12.9846  -12.9121 C.3     1  UNL1        0.0000
     10 C          -5.9420   10.8414  -15.1079 C.3     1  UNL1        0.0000
     11 C          -3.1131   11.0474  -14.9798 C.ar    1  UNL1        0.0000
     12 C          -2.9163   10.0009  -14.0858 C.ar    1  UNL1        0.0000
     13 C          -1.8893   10.0650  -13.1625 C.ar    1  UNL1        0.0000
     14 C          -1.0505   11.1684  -13.1296 C.ar    1  UNL1        0.0000
     15 C          -1.2327   12.2063  -14.0287 C.ar    1  UNL1        0.0000
     16 C          -2.2606   12.1435  -14.9525 C.ar    1  UNL1        0.0000
     17 C          -4.1903    9.3630  -16.9083 C.ar    1  UNL1        0.0000
     18 C          -5.1694    8.3844  -17.0189 C.ar    1  UNL1        0.0000
     19 C          -4.8738    7.1718  -17.6184 C.ar    1  UNL1        0.0000
     20 C          -3.6057    6.9316  -18.1180 C.ar    1  UNL1        0.0000
     21 C          -2.6270    7.9094  -18.0220 C.ar    1  UNL1        0.0000
     22 C          -2.9187    9.1190  -17.4240 C.ar    1  UNL1        0.0000
     23 H          -4.2575   14.9762  -15.1536 H       1  UNL1        0.0000
     24 H          -4.2465   15.9965  -17.6385 H       1  UNL1        0.0000
     25 H          -6.3509   15.0141  -18.9485 H       1  UNL1        0.0000
     26 H          -7.6814   13.3760  -17.2908 H       1  UNL1        0.0000
     27 H          -8.4903   13.6350  -13.6133 H       1  UNL1        0.0000
     28 H          -8.4386   11.9363  -13.1944 H       1  UNL1        0.0000
     29 H          -8.8566   12.4258  -14.8250 H       1  UNL1        0.0000
     30 H          -5.4873   13.9870  -12.5457 H       1  UNL1        0.0000
     31 H          -4.2320   12.9079  -13.1331 H       1  UNL1        0.0000
     32 H          -5.5111   12.2929  -12.1047 H       1  UNL1        0.0000
     33 H          -5.7657   10.0887  -14.3391 H       1  UNL1        0.0000
     34 H          -6.7664   10.5074  -15.7411 H       1  UNL1        0.0000
     35 H          -3.5613    9.1333  -14.1232 H       1  UNL1        0.0000
     36 H          -1.7382    9.2519  -12.4673 H       1  UNL1        0.0000
     37 H          -0.2499   11.2147  -12.4061 H       1  UNL1        0.0000
     38 H          -0.5722   13.0610  -14.0099 H       1  UNL1        0.0000
     39 H          -2.4177   12.9409  -15.6762 H       1  UNL1        0.0000
     40 H          -6.1643    8.5631  -16.6380 H       1  UNL1        0.0000
     41 H          -5.6384    6.4125  -17.6976 H       1  UNL1        0.0000
     42 H          -3.3800    5.9851  -18.5867 H       1  UNL1        0.0000
     43 H          -1.6390    7.7267  -18.4178 H       1  UNL1        0.0000
     44 H          -2.1660    9.8932  -17.3480 H       1  UNL1        0.0000
@<TRIPOS>BOND
     1    25     6    1
     2    42    20    1
     3    43    21    1
     4    20    21   ar
     5    20    19   ar
     6    21    22   ar
     7     6     5    1
     8     6     7    2
     9    41    19    1
    10    24     5    1
    11    19    18   ar
    12    22    44    1
    13    22    17   ar
    14    26     7    1
    15     5     4    2
    16     7     3    1
    17    18    17   ar
    18    18    40    1
    19    17     1    1
    20     1    10    1
    21     1    11    1
    22     4     3    1
    23     4    23    1
    24     3     2    1
    25    34    10    1
    26    39    16    1
    27    10     2    1
    28    10    33    1
    29    11    16   ar
    30    11    12   ar
    31    16    15   ar
    32    29     8    1
    33     2     8    1
    34     2     9    1
    35    35    12    1
    36    12    13   ar
    37    15    38    1
    38    15    14   ar
    39     8    27    1
    40     8    28    1
    41    13    14   ar
    42    13    36    1
    43    31     9    1
    44    14    37    1
    45     9    30    1
    46     9    32    1
