@<TRIPOS>MOLECULE
1,3,4,5,6,7
 44 46 0 0 0
SMALL
GASTEIGER

@<TRIPOS>ATOM
      1 P           0.5711    2.8512    6.5609 P.3     1  UNL1        0.0000
      2 SI         -1.1497    4.1582    8.7210 Si      1  UNL1        0.0000
      3 C          -2.2207    4.2091    7.1565 C.3     1  UNL1        0.0000
      4 C          -3.1784    3.2307    6.7724 C.3     1  UNL1        0.0000
      5 C          -3.6372    3.5157    5.4477 C.2     1  UNL1        0.0000
      6 C          -2.9508    4.6533    4.9982 C.2     1  UNL1        0.0000
      7 C          -2.0478    5.0657    6.0242 C.3     1  UNL1        0.0000
      8 C          -0.2924    5.8352    8.9879 C.3     1  UNL1        0.0000
      9 C          -2.2122    3.6420   10.2098 C.3     1  UNL1        0.0000
     10 C           0.1419    2.7740    8.3436 C.3     1  UNL1        0.0000
     11 C           1.7549    1.5108    6.2580 C.ar    1  UNL1        0.0000
     12 C           1.7391    0.3295    6.9917 C.ar    1  UNL1        0.0000
     13 C           2.6412   -0.6755    6.6958 C.ar    1  UNL1        0.0000
     14 C           3.5511   -0.5144    5.6640 C.ar    1  UNL1        0.0000
     15 C           3.5644    0.6586    4.9269 C.ar    1  UNL1        0.0000
     16 C           2.6708    1.6706    5.2206 C.ar    1  UNL1        0.0000
     17 C           1.6885    4.2905    6.4905 C.ar    1  UNL1        0.0000
     18 C           2.8230    4.2636    7.2985 C.ar    1  UNL1        0.0000
     19 C           3.6965    5.3332    7.3042 C.ar    1  UNL1        0.0000
     20 C           3.4522    6.4349    6.4983 C.ar    1  UNL1        0.0000
     21 C           2.3376    6.4577    5.6786 C.ar    1  UNL1        0.0000
     22 C           1.4579    5.3884    5.6738 C.ar    1  UNL1        0.0000
     23 H          -3.5943    2.4716    7.4199 H       1  UNL1        0.0000
     24 H          -4.4350    3.0027    4.9317 H       1  UNL1        0.0000
     25 H          -3.1030    5.1574    4.0549 H       1  UNL1        0.0000
     26 H          -1.4890    5.9903    6.0243 H       1  UNL1        0.0000
     27 H          -1.0263    6.6223    9.1296 H       1  UNL1        0.0000
     28 H           0.3470    6.1171    8.1565 H       1  UNL1        0.0000
     29 H           0.3256    5.8026    9.8793 H       1  UNL1        0.0000
     30 H          -2.9947    4.3705   10.3923 H       1  UNL1        0.0000
     31 H          -1.6041    3.5848   11.1061 H       1  UNL1        0.0000
     32 H          -2.6854    2.6750   10.0712 H       1  UNL1        0.0000
     33 H           1.0473    2.8215    8.9498 H       1  UNL1        0.0000
     34 H          -0.3282    1.8005    8.5099 H       1  UNL1        0.0000
     35 H           1.0164    0.1821    7.7806 H       1  UNL1        0.0000
     36 H           2.6226   -1.5926    7.2651 H       1  UNL1        0.0000
     37 H           4.2444   -1.3078    5.4285 H       1  UNL1        0.0000
     38 H           4.2645    0.7839    4.1149 H       1  UNL1        0.0000
     39 H           2.6724    2.5827    4.6398 H       1  UNL1        0.0000
     40 H           3.0273    3.3941    7.9091 H       1  UNL1        0.0000
     41 H           4.5743    5.3062    7.9328 H       1  UNL1        0.0000
     42 H           4.1377    7.2688    6.5025 H       1  UNL1        0.0000
     43 H           2.1533    7.3053    5.0355 H       1  UNL1        0.0000
     44 H           0.6028    5.4037    5.0134 H       1  UNL1        0.0000
@<TRIPOS>BOND
     1    25     6    1
     2    38    15    1
     3    39    16    1
     4    15    16   ar
     5    15    14   ar
     6    24     5    1
     7     6     5    2
     8     6     7    1
     9    44    22    1
    10    43    21    1
    11    16    11   ar
    12    37    14    1
    13     5     4    1
    14    14    13   ar
    15    22    21   ar
    16    22    17   ar
    17    21    20   ar
    18     7    26    1
    19     7     3    1
    20    11     1    1
    21    11    12   ar
    22    17     1    1
    23    17    18   ar
    24    20    42    1
    25    20    19   ar
    26     1    10    1
    27    13    12   ar
    28    13    36    1
    29     4     3    1
    30     4    23    1
    31    12    35    1
    32     3     2    1
    33    18    19   ar
    34    18    40    1
    35    19    41    1
    36    28     8    1
    37    10    34    1
    38    10     2    1
    39    10    33    1
    40     2     8    1
    41     2     9    1
    42     8    27    1
    43     8    29    1
    44    32     9    1
    45     9    30    1
    46     9    31    1
