@<TRIPOS>MOLECULE
1,3,4,5,6,7
 44 46 0 0 0
SMALL
GASTEIGER

@<TRIPOS>ATOM
      1 P          -1.8775   -0.3732   11.0693 P.3     1  UNL1        0.0000
      2 SI          0.2192    1.7171   10.3180 Si      1  UNL1        0.0000
      3 C           1.0441    0.0533    9.9477 C.3     1  UNL1        0.0000
      4 C           0.8988   -0.7358    8.7728 C.3     1  UNL1        0.0000
      5 C           1.5721   -1.9737    8.9714 C.2     1  UNL1        0.0000
      6 C           2.0964   -1.9843   10.2766 C.2     1  UNL1        0.0000
      7 C           1.7553   -0.7432   10.8969 C.3     1  UNL1        0.0000
      8 C           1.4521    2.8530   11.2189 C.3     1  UNL1        0.0000
      9 C          -0.4444    2.5132    8.7202 C.3     1  UNL1        0.0000
     10 C          -1.2309    1.2858   11.5113 C.3     1  UNL1        0.0000
     11 C          -3.0736   -0.8527   12.3557 C.ar    1  UNL1        0.0000
     12 C          -3.3565   -0.0585   13.4611 C.ar    1  UNL1        0.0000
     13 C          -4.2650   -0.4944   14.4094 C.ar    1  UNL1        0.0000
     14 C          -4.8916   -1.7206   14.2644 C.ar    1  UNL1        0.0000
     15 C          -4.6151   -2.5122   13.1612 C.ar    1  UNL1        0.0000
     16 C          -3.7105   -2.0821   12.2084 C.ar    1  UNL1        0.0000
     17 C          -3.0113    0.0630    9.7078 C.ar    1  UNL1        0.0000
     18 C          -2.7396   -0.2441    8.3819 C.ar    1  UNL1        0.0000
     19 C          -3.6048    0.1645    7.3817 C.ar    1  UNL1        0.0000
     20 C          -4.7433    0.8858    7.6982 C.ar    1  UNL1        0.0000
     21 C          -5.0198    1.1940    9.0206 C.ar    1  UNL1        0.0000
     22 C          -4.1592    0.7852   10.0221 C.ar    1  UNL1        0.0000
     23 H           0.5163   -0.3806    7.8277 H       1  UNL1        0.0000
     24 H           1.7031   -2.7485    8.2319 H       1  UNL1        0.0000
     25 H           2.7328   -2.7484   10.6959 H       1  UNL1        0.0000
     26 H           2.1303   -0.3961   11.8476 H       1  UNL1        0.0000
     27 H           2.3159    3.0558   10.5954 H       1  UNL1        0.0000
     28 H           1.8090    2.4179   12.1468 H       1  UNL1        0.0000
     29 H           0.9911    3.8052   11.4576 H       1  UNL1        0.0000
     30 H           0.3539    2.6623    8.0001 H       1  UNL1        0.0000
     31 H          -0.8749    3.4865    8.9331 H       1  UNL1        0.0000
     32 H          -1.2150    1.9092    8.2502 H       1  UNL1        0.0000
     33 H          -0.8494    1.2300   12.5298 H       1  UNL1        0.0000
     34 H          -2.0485    2.0067   11.4809 H       1  UNL1        0.0000
     35 H          -2.8608    0.8914   13.5939 H       1  UNL1        0.0000
     36 H          -4.4771    0.1234   15.2693 H       1  UNL1        0.0000
     37 H          -5.5915   -2.0603   15.0131 H       1  UNL1        0.0000
     38 H          -5.1014   -3.4691   13.0450 H       1  UNL1        0.0000
     39 H          -3.4815   -2.6940   11.3476 H       1  UNL1        0.0000
     40 H          -1.8658   -0.8295    8.1372 H       1  UNL1        0.0000
     41 H          -3.3918   -0.0854    6.3529 H       1  UNL1        0.0000
     42 H          -5.4191    1.2012    6.9174 H       1  UNL1        0.0000
     43 H          -5.9110    1.7498    9.2723 H       1  UNL1        0.0000
     44 H          -4.3839    1.0160   11.0547 H       1  UNL1        0.0000
@<TRIPOS>BOND
     1    41    19    1
     2    42    20    1
     3    19    20   ar
     4    19    18   ar
     5    20    21   ar
     6    23     4    1
     7    30     9    1
     8    40    18    1
     9    24     5    1
    10    32     9    1
    11    18    17   ar
    12     9    31    1
    13     9     2    1
    14     4     5    1
    15     4     3    1
    16     5     6    2
    17    21    43    1
    18    21    22   ar
    19    17    22   ar
    20    17     1    1
    21     3     2    1
    22     3     7    1
    23    22    44    1
    24     6    25    1
    25     6     7    1
    26     2     8    1
    27     2    10    1
    28    27     8    1
    29     7    26    1
    30     1    10    1
    31     1    11    1
    32     8    29    1
    33     8    28    1
    34    39    16    1
    35    34    10    1
    36    10    33    1
    37    16    11   ar
    38    16    15   ar
    39    11    12   ar
    40    38    15    1
    41    15    14   ar
    42    12    35    1
    43    12    13   ar
    44    14    13   ar
    45    14    37    1
    46    13    36    1
