@<TRIPOS>MOLECULE
1,3,4,5,6,7
 48 49 0 0 0
SMALL
GASTEIGER

@<TRIPOS>ATOM
      1 P           6.1345    2.8143   12.9250 P.3     1  UNL1        0.0000
      2 SI          6.5728    3.7714   10.9276 Si      1  UNL1        0.0000
      3 C           5.2402    2.7628   10.0549 C.3     1  UNL1        0.0000
      4 C           5.4919    1.6830    9.1634 C.3     1  UNL1        0.0000
      5 C           4.4268    0.7602    9.2711 C.2     1  UNL1        0.0000
      6 C           3.4875    1.2767   10.2139 C.2     1  UNL1        0.0000
      7 C           3.9861    2.5045   10.6956 C.3     1  UNL1        0.0000
      8 C           3.2234    3.4810   11.5439 C.3     1  UNL1        0.0000
      9 C           2.1151    0.7084   10.4401 C.3     1  UNL1        0.0000
     10 C           4.1608   -0.4544    8.4250 C.3     1  UNL1        0.0000
     11 C           6.5524    1.7061    8.0957 C.3     1  UNL1        0.0000
     12 C           8.3413    3.3702   10.2889 C.3     1  UNL1        0.0000
     13 C           6.3363    5.6717   10.8091 C.3     1  UNL1        0.0000
     14 C           7.8205    2.6643   13.7435 C.3     1  UNL1        0.0000
     15 C           7.6534    1.9884   15.1050 C.3     1  UNL1        0.0000
     16 C           8.9999    1.8476   15.8085 C.3     1  UNL1        0.0000
     17 C           9.6411    3.2188   16.0006 C.3     1  UNL1        0.0000
     18 C           9.7861    3.9313   14.6593 C.3     1  UNL1        0.0000
     19 C           8.4332    4.0472   13.9616 C.3     1  UNL1        0.0000
     20 H           2.5951    4.1110   10.9077 H       1  UNL1        0.0000
     21 H           3.8994    4.1310   12.0996 H       1  UNL1        0.0000
     22 H           2.5734    2.9700   12.2549 H       1  UNL1        0.0000
     23 H           1.6902    1.0617   11.3790 H       1  UNL1        0.0000
     24 H           2.1360   -0.3819   10.4539 H       1  UNL1        0.0000
     25 H           1.4445    1.0186    9.6327 H       1  UNL1        0.0000
     26 H           4.9493   -0.6135    7.6907 H       1  UNL1        0.0000
     27 H           3.2193   -0.3332    7.8836 H       1  UNL1        0.0000
     28 H           4.0784   -1.3571    9.0358 H       1  UNL1        0.0000
     29 H           7.5409    1.4318    8.4624 H       1  UNL1        0.0000
     30 H           6.6192    2.7138    7.6838 H       1  UNL1        0.0000
     31 H           6.2941    1.0317    7.2789 H       1  UNL1        0.0000
     32 H           8.4706    3.6376    9.2461 H       1  UNL1        0.0000
     33 H           8.5508    2.3089   10.4078 H       1  UNL1        0.0000
     34 H           9.0823    3.9217   10.8577 H       1  UNL1        0.0000
     35 H           6.4356    6.0123    9.7840 H       1  UNL1        0.0000
     36 H           7.0833    6.1859   11.4036 H       1  UNL1        0.0000
     37 H           5.3606    5.9780   11.1686 H       1  UNL1        0.0000
     38 H           8.4861    2.0644   13.1097 H       1  UNL1        0.0000
     39 H           7.1802    1.0084   14.9895 H       1  UNL1        0.0000
     40 H           6.9844    2.6021   15.7153 H       1  UNL1        0.0000
     41 H           8.8667    1.3602   16.7773 H       1  UNL1        0.0000
     42 H           9.6590    1.2183   15.2049 H       1  UNL1        0.0000
     43 H          10.6197    3.1121   16.4749 H       1  UNL1        0.0000
     44 H           9.0124    3.8202   16.6612 H       1  UNL1        0.0000
     45 H          10.4722    3.3669   14.0223 H       1  UNL1        0.0000
     46 H          10.2125    4.9259   14.8109 H       1  UNL1        0.0000
     47 H           8.5488    4.5634   13.0071 H       1  UNL1        0.0000
     48 H           7.7503    4.6399   14.5751 H       1  UNL1        0.0000
@<TRIPOS>BOND
     1    31    11    1
     2    30    11    1
     3    26    10    1
     4    27    10    1
     5    11    29    1
     6    11     4    1
     7    10    28    1
     8    10     5    1
     9     4     5    1
    10     4     3    1
    11    32    12    1
    12     5     6    2
    13    25     9    1
    14    35    13    1
    15     3     7    1
    16     3     2    1
    17     6     9    1
    18     6     7    1
    19    12    33    1
    20    12    34    1
    21    12     2    1
    22     9    24    1
    23     9    23    1
    24     7     8    1
    25    13     2    1
    26    13    37    1
    27    13    36    1
    28    20     8    1
    29     2     1    1
    30     8    21    1
    31     8    22    1
    32     1    14    1
    33    47    19    1
    34    38    14    1
    35    14    19    1
    36    14    15    1
    37    19    48    1
    38    19    18    1
    39    45    18    1
    40    18    46    1
    41    18    17    1
    42    39    15    1
    43    15    40    1
    44    15    16    1
    45    42    16    1
    46    16    17    1
    47    16    41    1
    48    17    43    1
    49    17    44    1
