@<TRIPOS>MOLECULE
1,3,4,5,6,7
 48 49 0 0 0
SMALL
GASTEIGER

@<TRIPOS>ATOM
      1 P           8.3036    2.3098    3.8335 P.3     1  UNL1        0.0000
      2 SI          7.6093    2.1261    1.6797 Si      1  UNL1        0.0000
      3 C           6.6930    3.7724    1.5529 C.3     1  UNL1        0.0000
      4 C           5.2763    3.9367    1.4791 C.2     1  UNL1        0.0000
      5 C           4.9388    5.1833    2.0588 C.2     1  UNL1        0.0000
      6 C           6.1499    5.8175    2.4770 C.2     1  UNL1        0.0000
      7 C           7.2195    4.9520    2.1706 C.2     1  UNL1        0.0000
      8 C           8.6825    5.2956    2.2511 C.3     1  UNL1        0.0000
      9 C           6.2920    7.2359    2.9644 C.3     1  UNL1        0.0000
     10 C           3.5954    5.8617    1.9694 C.3     1  UNL1        0.0000
     11 C           4.3649    3.0935    0.6240 C.3     1  UNL1        0.0000
     12 C           6.3575    0.6721    1.5307 C.3     1  UNL1        0.0000
     13 C           8.9688    1.9102    0.3391 C.3     1  UNL1        0.0000
     14 C           8.1776    0.5145    4.4048 C.3     1  UNL1        0.0000
     15 C           9.2239   -0.3404    3.6907 C.3     1  UNL1        0.0000
     16 C           9.1523   -1.7923    4.1562 C.3     1  UNL1        0.0000
     17 C           9.3650   -1.8823    5.6638 C.3     1  UNL1        0.0000
     18 C           8.3371   -1.0225    6.3920 C.3     1  UNL1        0.0000
     19 C           8.4144    0.4244    5.9116 C.3     1  UNL1        0.0000
     20 H           9.0666    5.5042    1.2490 H       1  UNL1        0.0000
     21 H           9.2704    4.4713    2.6622 H       1  UNL1        0.0000
     22 H           8.8462    6.1849    2.8590 H       1  UNL1        0.0000
     23 H           6.8243    7.2817    3.9168 H       1  UNL1        0.0000
     24 H           5.3198    7.7074    3.0930 H       1  UNL1        0.0000
     25 H           6.8524    7.8281    2.2373 H       1  UNL1        0.0000
     26 H           2.7813    5.1383    1.9609 H       1  UNL1        0.0000
     27 H           3.5314    6.4485    1.0485 H       1  UNL1        0.0000
     28 H           3.4312    6.5449    2.8034 H       1  UNL1        0.0000
     29 H           4.0899    2.1425    1.0815 H       1  UNL1        0.0000
     30 H           4.8662    2.8694   -0.3184 H       1  UNL1        0.0000
     31 H           3.4504    3.6370    0.3897 H       1  UNL1        0.0000
     32 H           5.9012    0.6175    0.5489 H       1  UNL1        0.0000
     33 H           5.5754    0.7889    2.2835 H       1  UNL1        0.0000
     34 H           6.8548   -0.2766    1.7038 H       1  UNL1        0.0000
     35 H           9.4282    0.9302    0.4043 H       1  UNL1        0.0000
     36 H           9.7525    2.6497    0.4575 H       1  UNL1        0.0000
     37 H           8.5549    2.0184   -0.6578 H       1  UNL1        0.0000
     38 H           7.1751    0.1338    4.1764 H       1  UNL1        0.0000
     39 H          10.2140    0.0685    3.9064 H       1  UNL1        0.0000
     40 H           9.0761   -0.2867    2.6105 H       1  UNL1        0.0000
     41 H           8.1716   -2.2051    3.9046 H       1  UNL1        0.0000
     42 H           9.9079   -2.3864    3.6368 H       1  UNL1        0.0000
     43 H          10.3693   -1.5287    5.9078 H       1  UNL1        0.0000
     44 H           9.2857   -2.9212    5.9930 H       1  UNL1        0.0000
     45 H           7.3354   -1.4141    6.1994 H       1  UNL1        0.0000
     46 H           8.5118   -1.0648    7.4699 H       1  UNL1        0.0000
     47 H           9.4056    0.8293    6.1363 H       1  UNL1        0.0000
     48 H           7.6766    1.0314    6.4451 H       1  UNL1        0.0000
@<TRIPOS>BOND
     1    37    13    1
     2    30    11    1
     3    13    35    1
     4    13    36    1
     5    13     2    1
     6    31    11    1
     7    32    12    1
     8    11    29    1
     9    11     4    1
    10    27    10    1
    11    20     8    1
    12     4     3    1
    13     4     5    2
    14    12     2    1
    15    12    34    1
    16    12    33    1
    17     3     2    1
    18     3     7    1
    19     2     1    1
    20    26    10    1
    21    10     5    1
    22    10    28    1
    23     5     6    1
    24     7     8    1
    25     7     6    2
    26    25     9    1
    27     8    21    1
    28     8    22    1
    29     6     9    1
    30    40    15    1
    31     9    24    1
    32     9    23    1
    33    42    16    1
    34    15    39    1
    35    15    16    1
    36    15    14    1
    37     1    14    1
    38    41    16    1
    39    16    17    1
    40    38    14    1
    41    14    19    1
    42    17    43    1
    43    17    44    1
    44    17    18    1
    45    19    47    1
    46    19    18    1
    47    19    48    1
    48    45    18    1
    49    18    46    1
