@<TRIPOS>MOLECULE
1,2,3,5,7,9
 42 42 0 0 0
SMALL
GASTEIGER

@<TRIPOS>ATOM
      1 P           6.3549    5.6994    5.9038 P.3     1  UNL1       -0.0945
      2 C           4.2433    3.7756    6.3567 C.2     1  UNL1       -0.0689
      3 C           3.8535    4.6131    7.4471 C.3     1  UNL1       -0.0094
      4 H           4.3248    4.6335    8.4174 H       1  UNL1        0.0354
      5 C           2.6191    5.1935    7.1314 C.3     1  UNL1       -0.0232
      6 H           2.0015    5.7688    7.8004 H       1  UNL1        0.0316
      7 C           2.2692    4.7778    5.8209 C.3     1  UNL1       -0.0124
      8 H           1.3282    4.9812    5.3326 H       1  UNL1        0.0352
      9 C           3.2481    3.8502    5.3741 C.2     1  UNL1       -0.0805
     10 H           3.1979    3.2605    4.4719 H       1  UNL1        0.0575
     11 C           5.5353    3.0255    6.2825 C.3     1  UNL1       -0.0275
     12 H           5.5472    2.2110    7.0167 H       1  UNL1        0.0313
     13 H           5.6375    2.5784    5.2922 H       1  UNL1        0.0313
     14 C           6.6906    3.9901    6.5784 C.3     1  UNL1       -0.0277
     15 H           7.6451    3.5992    6.2174 H       1  UNL1        0.0316
     16 H           6.7644    4.1084    7.6615 H       1  UNL1        0.0316
     17 C           7.3062    5.6957    4.2559 C.3     1  UNL1       -0.0168
     18 C           6.7667    4.4960    3.4718 C.3     1  UNL1       -0.0561
     19 H           5.6783    4.4898    3.4964 H       1  UNL1        0.0238
     20 H           7.1423    3.5574    3.8725 H       1  UNL1        0.0238
     21 H           7.0799    4.5632    2.4310 H       1  UNL1        0.0238
     22 C           8.8234    5.5613    4.3696 C.3     1  UNL1       -0.0561
     23 H           9.2795    6.4816    4.7232 H       1  UNL1        0.0238
     24 H           9.2317    5.3538    3.3806 H       1  UNL1        0.0238
     25 H           9.1145    4.7434    5.0249 H       1  UNL1        0.0238
     26 C           6.9652    6.9685    3.4808 C.3     1  UNL1       -0.0561
     27 H           5.8872    7.1002    3.4293 H       1  UNL1        0.0238
     28 H           7.3556    6.8955    2.4668 H       1  UNL1        0.0238
     29 H           7.3935    7.8514    3.9432 H       1  UNL1        0.0238
     30 C           7.3056    6.7467    7.1821 C.3     1  UNL1       -0.0168
     31 C           6.4008    6.8035    8.4168 C.3     1  UNL1       -0.0561
     32 H           6.3608    5.8425    8.9258 H       1  UNL1        0.0238
     33 H           5.3906    7.1015    8.1436 H       1  UNL1        0.0238
     34 H           6.7860    7.5322    9.1287 H       1  UNL1        0.0238
     35 C           8.6704    6.2106    7.6198 C.3     1  UNL1       -0.0561
     36 H           8.6163    5.1895    7.9870 H       1  UNL1        0.0238
     37 H           9.0353    6.8333    8.4368 H       1  UNL1        0.0238
     38 H           9.4050    6.2522    6.8241 H       1  UNL1        0.0238
     39 C           7.4689    8.1632    6.6338 C.3     1  UNL1       -0.0561
     40 H           8.2638    8.2096    5.8939 H       1  UNL1        0.0238
     41 H           7.7311    8.8464    7.4411 H       1  UNL1        0.0238
     42 H           6.5402    8.5007    6.1794 H       1  UNL1        0.0238
@<TRIPOS>BOND
     1    21    18    1
     2    28    26    1
     3    24    22    1
     4    27    26    1
     5    18    19    1
     6    18    20    1
     7    18    17    1
     8    26    29    1
     9    26    17    1
    10    17    22    1
    11    17     1    1
    12    22    23    1
    13    22    25    1
    14    10     9    1
    15    13    11    1
    16     8     7    1
    17     9     7    1
    18     9     2    2
    19     7     5    1
    20    40    39    1
    21     1    14    1
    22     1    30    1
    23    42    39    1
    24    15    14    1
    25    11     2    1
    26    11    14    1
    27    11    12    1
    28     2     3    1
    29    14    16    1
    30    39    30    1
    31    39    41    1
    32    38    35    1
    33     5     3    1
    34     5     6    1
    35    30    35    1
    36    30    31    1
    37     3     4    1
    38    35    36    1
    39    35    37    1
    40    33    31    1
    41    31    32    1
    42    31    34    1
