@<TRIPOS>MOLECULE
1,2,3,5,7,9
 42 42 0 0 0
SMALL
GASTEIGER

@<TRIPOS>ATOM
      1 P          -1.3608    1.5681    2.7317 P.3     1  UNL1       -0.0945
      2 C           0.7492    3.4939    2.2809 C.2     1  UNL1       -0.0689
      3 C           1.1396    2.6574    1.1900 C.3     1  UNL1       -0.0094
      4 H           0.6683    2.6370    0.2198 H       1  UNL1        0.0354
      5 C           2.3745    2.0779    1.5054 C.3     1  UNL1       -0.0232
      6 H           2.9925    1.5034    0.8360 H       1  UNL1        0.0316
      7 C           2.7241    2.4932    2.8160 C.3     1  UNL1       -0.0124
      8 H           3.6654    2.2906    3.3042 H       1  UNL1        0.0352
      9 C           1.7445    3.4198    3.2634 C.2     1  UNL1       -0.0805
     10 H           1.7943    4.0091    4.1659 H       1  UNL1        0.0575
     11 C          -0.5435    4.2429    2.3556 C.3     1  UNL1       -0.0275
     12 H          -0.5559    5.0584    1.6226 H       1  UNL1        0.0313
     13 H          -0.6463    4.6885    3.3466 H       1  UNL1        0.0313
     14 C          -1.6978    3.2777    2.0582 C.3     1  UNL1       -0.0277
     15 H          -1.7707    3.1601    0.9751 H       1  UNL1        0.0316
     16 H          -2.6529    3.6673    2.4189 H       1  UNL1        0.0316
     17 C          -2.3125    1.5696    4.3793 C.3     1  UNL1       -0.0168
     18 C          -1.7749    2.7695    5.1644 C.3     1  UNL1       -0.0561
     19 H          -0.6866    2.7776    5.1397 H       1  UNL1        0.0238
     20 H          -2.0877    2.7008    6.2053 H       1  UNL1        0.0238
     21 H          -2.1523    3.7079    4.7648 H       1  UNL1        0.0238
     22 C          -3.8300    1.7023    4.2656 C.3     1  UNL1       -0.0561
     23 H          -4.2850    0.7817    3.9113 H       1  UNL1        0.0238
     24 H          -4.1219    2.5204    3.6108 H       1  UNL1        0.0238
     25 H          -4.2386    1.9087    5.2547 H       1  UNL1        0.0238
     26 C          -1.9702    0.2967    5.1536 C.3     1  UNL1       -0.0561
     27 H          -0.8920    0.1660    5.2048 H       1  UNL1        0.0238
     28 H          -2.3977   -0.5863    4.6908 H       1  UNL1        0.0238
     29 H          -2.3604    0.3686    6.1678 H       1  UNL1        0.0238
     30 C          -2.3099    0.5206    1.4525 C.3     1  UNL1       -0.0168
     31 C          -1.4044    0.4647    0.2183 C.3     1  UNL1       -0.0561
     32 H          -1.3640    1.4261   -0.2900 H       1  UNL1        0.0238
     33 H          -1.7894   -0.2635   -0.4944 H       1  UNL1        0.0238
     34 H          -0.3944    0.1663    0.4917 H       1  UNL1        0.0238
     35 C          -3.6748    1.0560    1.0144 C.3     1  UNL1       -0.0561
     36 H          -3.6205    2.0765    0.6452 H       1  UNL1        0.0238
     37 H          -4.4091    1.0162    1.8104 H       1  UNL1        0.0238
     38 H          -4.0401    0.4320    0.1987 H       1  UNL1        0.0238
     39 C          -2.4725   -0.8962    2.0002 C.3     1  UNL1       -0.0561
     40 H          -3.2675   -0.9434    2.7398 H       1  UNL1        0.0238
     41 H          -1.5436   -1.2332    2.4548 H       1  UNL1        0.0238
     42 H          -2.7340   -1.5793    1.1925 H       1  UNL1        0.0238
@<TRIPOS>BOND
     1    33    31    1
     2    32    31    1
     3    38    35    1
     4    31    34    1
     5    31    30    1
     6     4     3    1
     7    36    35    1
     8     6     5    1
     9    15    14    1
    10    35    30    1
    11    35    37    1
    12     3     5    1
    13     3     2    1
    14    42    39    1
    15    30    39    1
    16    30     1    1
    17     5     7    1
    18    12    11    1
    19    39    41    1
    20    39    40    1
    21    14    11    1
    22    14    16    1
    23    14     1    1
    24     2    11    1
    25     2     9    2
    26    11    13    1
    27     1    17    1
    28     7     9    1
    29     7     8    1
    30     9    10    1
    31    24    22    1
    32    23    22    1
    33    22    17    1
    34    22    25    1
    35    17    26    1
    36    17    18    1
    37    28    26    1
    38    21    18    1
    39    19    18    1
    40    26    27    1
    41    26    29    1
    42    18    20    1
