@<TRIPOS>MOLECULE
1,2,4,6,8,40
 76 79 0 0 0
SMALL
GASTEIGER

@<TRIPOS>ATOM
      1 C           0.9788    2.2020    5.2667 C.3     1  UNL1        0.0000
      2 C           0.0542    1.5626    6.1620 C.2     1  UNL1        0.0000
      3 H          -1.0222    1.5381    6.0526 H       1  UNL1        0.0000
      4 C           0.7583    1.2418    7.3507 C.2     1  UNL1        0.0000
      5 H           0.3251    0.8454    8.2604 H       1  UNL1        0.0000
      6 C           2.1039    1.6308    7.1911 C.2     1  UNL1        0.0000
      7 H           2.8632    1.6130    7.9610 H       1  UNL1        0.0000
      8 C           2.2324    2.2437    5.9097 C.2     1  UNL1        0.0000
      9 H           3.1186    2.7386    5.5432 H       1  UNL1        0.0000
     10 C           0.6532    2.6371    3.8571 C.3     1  UNL1        0.0000
     11 C           1.9430    2.8492    3.0539 C.3     1  UNL1        0.0000
     12 H           1.6908    2.9938    1.9957 H       1  UNL1        0.0000
     13 H           2.5487    1.9346    3.1293 H       1  UNL1        0.0000
     14 O           2.6823    3.9403    3.5075 O.3     1  UNL1        0.0000
     15 SI          4.2140    4.2554    3.0009 Si      1  UNL1        0.0000
     16 C           4.1970    4.7205    1.1474 C.3     1  UNL1        0.0000
     17 H           3.5827    5.5948    0.9524 H       1  UNL1        0.0000
     18 H           5.1942    4.9305    0.7760 H       1  UNL1        0.0000
     19 H           3.7948    3.9034    0.5535 H       1  UNL1        0.0000
     20 C           5.3389    2.7297    3.2131 C.3     1  UNL1        0.0000
     21 H           5.0078    2.0823    4.0220 H       1  UNL1        0.0000
     22 H           5.3400    2.1241    2.3102 H       1  UNL1        0.0000
     23 H           6.3700    2.9995    3.4184 H       1  UNL1        0.0000
     24 C           4.7085    5.7441    4.1076 C.3     1  UNL1        0.0000
     25 C           4.7470    5.3393    5.5824 C.3     1  UNL1        0.0000
     26 H           5.0723    6.1775    6.1993 H       1  UNL1        0.0000
     27 H           3.7586    5.0352    5.9190 H       1  UNL1        0.0000
     28 H           5.4370    4.5134    5.7404 H       1  UNL1        0.0000
     29 C           3.7190    6.9004    3.9475 C.3     1  UNL1        0.0000
     30 H           4.0008    7.7341    4.5911 H       1  UNL1        0.0000
     31 H           3.7028    7.2569    2.9201 H       1  UNL1        0.0000
     32 H           2.7154    6.5832    4.2199 H       1  UNL1        0.0000
     33 C           6.0972    6.2304    3.6972 C.3     1  UNL1        0.0000
     34 H           6.4009    7.0801    4.3084 H       1  UNL1        0.0000
     35 H           6.8355    5.4425    3.8221 H       1  UNL1        0.0000
     36 H           6.1049    6.5412    2.6556 H       1  UNL1        0.0000
     37 C          -0.1124    1.4903    3.1776 C.3     1  UNL1        0.0000
     38 H          -0.2397    1.6828    2.1088 H       1  UNL1        0.0000
     39 H          -1.1030    1.3904    3.6263 H       1  UNL1        0.0000
     40 P           0.8021   -0.1114    3.4547 P.3     1  UNL1        0.0000
     41 C          -0.5123   -1.3497    3.1686 C.ar    1  UNL1        0.0000
     42 C          -0.2626   -2.4938    2.4150 C.ar    1  UNL1        0.0000
     43 H           0.6982   -2.6244    1.9378 H       1  UNL1        0.0000
     44 C          -1.2409   -3.4582    2.2592 C.ar    1  UNL1        0.0000
     45 H          -1.0337   -4.3392    1.6694 H       1  UNL1        0.0000
     46 C          -2.4822   -3.2946    2.8493 C.ar    1  UNL1        0.0000
     47 H          -3.2505   -4.0416    2.7159 H       1  UNL1        0.0000
     48 C          -2.7319   -2.1724    3.6209 C.ar    1  UNL1        0.0000
     49 H          -3.6944   -2.0450    4.0943 H       1  UNL1        0.0000
     50 C          -1.7482   -1.2184    3.7949 C.ar    1  UNL1        0.0000
     51 H          -1.9437   -0.3662    4.4302 H       1  UNL1        0.0000
     52 C           1.7189   -0.2475    1.8747 C.ar    1  UNL1        0.0000
     53 C           3.1027   -0.3753    1.8631 C.ar    1  UNL1        0.0000
     54 H           3.6449   -0.4320    2.7977 H       1  UNL1        0.0000
     55 C           3.7826   -0.4281    0.6576 C.ar    1  UNL1        0.0000
     56 H           4.8581   -0.5276    0.6560 H       1  UNL1        0.0000
     57 C           3.0891   -0.3545   -0.5377 C.ar    1  UNL1        0.0000
     58 H           3.6202   -0.3925   -1.4777 H       1  UNL1        0.0000
     59 C           1.7073   -0.2369   -0.5297 C.ar    1  UNL1        0.0000
     60 H           1.1627   -0.1870   -1.4618 H       1  UNL1        0.0000
     61 C           1.0230   -0.1846    0.6691 C.ar    1  UNL1        0.0000
     62 H          -0.0567   -0.1101    0.6732 H       1  UNL1        0.0000
     63 C          -0.1844    3.9375    3.9051 C.3     1  UNL1        0.0000
     64 H           0.4291    4.6981    4.3920 H       1  UNL1        0.0000
     65 H          -1.0694    3.7590    4.5217 H       1  UNL1        0.0000
     66 C          -0.5952    4.4155    2.5431 C.ar    1  UNL1        0.0000
     67 C           0.2348    5.2611    1.8164 C.ar    1  UNL1        0.0000
     68 H           1.1675    5.5865    2.2520 H       1  UNL1        0.0000
     69 C          -0.1230    5.6812    0.5482 C.ar    1  UNL1        0.0000
     70 H           0.5324    6.3374   -0.0060 H       1  UNL1        0.0000
     71 C          -1.3202    5.2667   -0.0107 C.ar    1  UNL1        0.0000
     72 H          -1.6012    5.5959   -1.0003 H       1  UNL1        0.0000
     73 C          -2.1592    4.4339    0.7090 C.ar    1  UNL1        0.0000
     74 H          -3.0991    4.1129    0.2832 H       1  UNL1        0.0000
     75 C          -1.7983    4.0122    1.9767 C.ar    1  UNL1        0.0000
     76 H          -2.4649    3.3683    2.5339 H       1  UNL1        0.0000
@<TRIPOS>BOND
     1    58    57    1
     2    60    59    1
     3    72    71    1
     4    57    59   ar
     5    57    55   ar
     6    59    61   ar
     7    71    69   ar
     8    71    73   ar
     9    70    69    1
    10    74    73    1
    11    69    67   ar
    12    19    16    1
    13    56    55    1
    14    55    53   ar
    15    61    62    1
    16    61    52   ar
    17    73    75   ar
    18    18    16    1
    19    17    16    1
    20    16    15    1
    21    45    44    1
    22    67    68    1
    23    67    66   ar
    24    53    52   ar
    25    53    54    1
    26    52    40    1
    27    43    42    1
    28    75    76    1
    29    75    66   ar
    30    12    11    1
    31    38    37    1
    32    44    42   ar
    33    44    46   ar
    34    22    20    1
    35    42    41   ar
    36    66    63    1
    37    36    33    1
    38    47    46    1
    39    46    48   ar
    40    31    29    1
    41    15    20    1
    42    15    14    1
    43    15    24    1
    44    11    13    1
    45    11    14    1
    46    11    10    1
    47    41    40    1
    48    41    50   ar
    49    37    40    1
    50    37    39    1
    51    37    10    1
    52    20    23    1
    53    20    21    1
    54    48    50   ar
    55    48    49    1
    56    33    35    1
    57    33    24    1
    58    33    34    1
    59    50    51    1
    60    10    63    1
    61    10     1    1
    62    63    64    1
    63    63    65    1
    64    29    24    1
    65    29    32    1
    66    29    30    1
    67    24    25    1
    68     1     8    1
    69     1     2    1
    70     9     8    1
    71    25    28    1
    72    25    27    1
    73    25    26    1
    74     8     6    2
    75     3     2    1
    76     2     4    2
    77     6     4    1
    78     6     7    1
    79     4     5    1
