@<TRIPOS>MOLECULE
1,2,4,6,8,41
 63 65 0 0 0
SMALL
GASTEIGER

@<TRIPOS>ATOM
      1 C          -2.2898    2.3104    1.6455 C.3     1  UNL1        0.0000
      2 C          -1.2852    2.0593    0.6724 C.3     1  UNL1        0.0000
      3 H          -1.3262    1.3205   -0.1164 H       1  UNL1        0.0000
      4 C          -0.3175    3.0972    0.7782 C.2     1  UNL1        0.0000
      5 H           0.5175    3.2434    0.1049 H       1  UNL1        0.0000
      6 C          -0.7027    3.9628    1.8204 C.2     1  UNL1        0.0000
      7 H          -0.2318    4.9029    2.0776 H       1  UNL1        0.0000
      8 C          -1.9229    3.4747    2.3737 C.3     1  UNL1        0.0000
      9 H          -2.5442    4.0003    3.0866 H       1  UNL1        0.0000
     10 C          -3.5178    1.4766    1.8832 C.3     1  UNL1        0.0000
     11 H          -4.1520    2.0006    2.6067 H       1  UNL1        0.0000
     12 C          -4.3337    1.3545    0.5874 C.3     1  UNL1        0.0000
     13 H          -5.2371    0.7582    0.7699 H       1  UNL1        0.0000
     14 H          -3.7428    0.8504   -0.1840 H       1  UNL1        0.0000
     15 O          -4.7079    2.6321    0.1669 O.3     1  UNL1        0.0000
     16 SI         -4.7454    3.2687   -1.3412 Si      1  UNL1        0.0000
     17 C          -3.2115    2.7731   -2.3623 C.3     1  UNL1        0.0000
     18 H          -3.1989    1.7029   -2.5525 H       1  UNL1        0.0000
     19 H          -3.1909    3.2675   -3.3277 H       1  UNL1        0.0000
     20 H          -2.2917    3.0254   -1.8428 H       1  UNL1        0.0000
     21 C          -6.2984    2.6640   -2.2736 C.3     1  UNL1        0.0000
     22 H          -6.2695    1.5880   -2.4242 H       1  UNL1        0.0000
     23 H          -7.2040    2.8885   -1.7178 H       1  UNL1        0.0000
     24 H          -6.3892    3.1256   -3.2510 H       1  UNL1        0.0000
     25 C          -4.7866    5.1529   -0.9808 C.3     1  UNL1        0.0000
     26 C          -4.9671    5.9286   -2.2846 C.3     1  UNL1        0.0000
     27 H          -4.9831    7.0011   -2.0912 H       1  UNL1        0.0000
     28 H          -4.1532    5.7214   -2.9753 H       1  UNL1        0.0000
     29 H          -5.9022    5.6578   -2.7687 H       1  UNL1        0.0000
     30 C          -5.9465    5.4925   -0.0437 C.3     1  UNL1        0.0000
     31 H          -5.9524    6.5582    0.1858 H       1  UNL1        0.0000
     32 H          -6.8997    5.2383   -0.5013 H       1  UNL1        0.0000
     33 H          -5.8542    4.9392    0.8870 H       1  UNL1        0.0000
     34 C          -3.4806    5.5994   -0.3198 C.3     1  UNL1        0.0000
     35 H          -3.5188    6.6620   -0.0790 H       1  UNL1        0.0000
     36 H          -3.3105    5.0454    0.6000 H       1  UNL1        0.0000
     37 H          -2.6335    5.4328   -0.9814 H       1  UNL1        0.0000
     38 C          -3.1197    0.0955    2.4198 C.3     1  UNL1        0.0000
     39 H          -2.7930   -0.5320    1.5811 H       1  UNL1        0.0000
     40 H          -3.9552   -0.4094    2.9140 H       1  UNL1        0.0000
     41 P          -1.6321    0.1625    3.5500 P.3     1  UNL1        0.0000
     42 C          -2.3830    0.3328    5.2084 C.ar    1  UNL1        0.0000
     43 C          -1.8477   -0.3662    6.2871 C.ar    1  UNL1        0.0000
     44 H          -1.0282   -1.0500    6.1223 H       1  UNL1        0.0000
     45 C          -2.3629   -0.1964    7.5584 C.ar    1  UNL1        0.0000
     46 H          -1.9368   -0.7463    8.3844 H       1  UNL1        0.0000
     47 C          -3.4199    0.6726    7.7730 C.ar    1  UNL1        0.0000
     48 H          -3.8240    0.8024    8.7661 H       1  UNL1        0.0000
     49 C          -3.9563    1.3762    6.7077 C.ar    1  UNL1        0.0000
     50 H          -4.7803    2.0569    6.8678 H       1  UNL1        0.0000
     51 C          -3.4346    1.2154    5.4363 C.ar    1  UNL1        0.0000
     52 H          -3.8458    1.7845    4.6161 H       1  UNL1        0.0000
     53 C          -1.2703   -1.6285    3.5526 C.ar    1  UNL1        0.0000
     54 C          -0.0988   -2.1033    2.9771 C.ar    1  UNL1        0.0000
     55 H           0.6124   -1.4020    2.5625 H       1  UNL1        0.0000
     56 C           0.1487   -3.4657    2.9336 C.ar    1  UNL1        0.0000
     57 H           1.0638   -3.8280    2.4891 H       1  UNL1        0.0000
     58 C          -0.7714   -4.3579    3.4551 C.ar    1  UNL1        0.0000
     59 H          -0.5780   -5.4203    3.4220 H       1  UNL1        0.0000
     60 C          -1.9475   -3.8876    4.0202 C.ar    1  UNL1        0.0000
     61 H          -2.6698   -4.5830    4.4236 H       1  UNL1        0.0000
     62 C          -2.1991   -2.5305    4.0694 C.ar    1  UNL1        0.0000
     63 H          -3.1131   -2.1668    4.5195 H       1  UNL1        0.0000
@<TRIPOS>BOND
     1    19    17    1
     2    24    21    1
     3    28    26    1
     4    29    26    1
     5    18    17    1
     6    22    21    1
     7    17    20    1
     8    17    16    1
     9    26    27    1
    10    26    25    1
    11    21    23    1
    12    21    16    1
    13    16    25    1
    14    16    15    1
    15    37    34    1
    16    25    34    1
    17    25    30    1
    18    32    30    1
    19    34    35    1
    20    34    36    1
    21    14    12    1
    22     3     2    1
    23    30    31    1
    24    30    33    1
    25     5     4    1
    26    15    12    1
    27    12    13    1
    28    12    10    1
    29     2     4    1
    30     2     1    1
    31     4     6    2
    32    39    38    1
    33     1    10    1
    34     1     8    1
    35     6     7    1
    36     6     8    1
    37    10    38    1
    38    10    11    1
    39     8     9    1
    40    38    40    1
    41    38    41    1
    42    57    56    1
    43    55    54    1
    44    56    54   ar
    45    56    58   ar
    46    54    53   ar
    47    59    58    1
    48    58    60   ar
    49    41    53    1
    50    41    42    1
    51    53    62   ar
    52    60    62   ar
    53    60    61    1
    54    62    63    1
    55    52    51    1
    56    42    51   ar
    57    42    43   ar
    58    51    49   ar
    59    44    43    1
    60    43    45   ar
    61    49    50    1
    62    49    47   ar
    63    45    47   ar
    64    45    46    1
    65    47    48    1
