@<TRIPOS>MOLECULE
1,12,13,15,17,19
 54 56 0 0 0
SMALL
GASTEIGER

@<TRIPOS>ATOM
      1 P           9.0297    2.1781   12.5928 P.3     1  UNL1        0.0000
      2 SI          8.3846    3.2399   17.6731 Si      1  UNL1        0.0000
      3 O           7.6557    3.2544   16.2067 O.3     1  UNL1        0.0000
      4 C           8.1963    3.1962   13.8917 C.3     1  UNL1        0.0000
      5 H           8.8639    4.0072   14.1934 H       1  UNL1        0.0000
      6 H           7.2872    3.6360   13.4753 H       1  UNL1        0.0000
      7 C           7.8546    2.3719   15.1327 C.3     1  UNL1        0.0000
      8 H           8.6994    1.7039   15.3569 H       1  UNL1        0.0000
      9 C           6.5834    1.5300   14.9586 C.3     1  UNL1        0.0000
     10 H           6.3534    1.0918   15.9367 H       1  UNL1        0.0000
     11 H           5.7582    2.1974   14.6951 H       1  UNL1        0.0000
     12 C           6.7155    0.4309   13.9497 C.3     1  UNL1        0.0000
     13 C           7.7364   -0.5776   13.9526 C.2     1  UNL1        0.0000
     14 H           8.5177   -0.6714   14.6950 H       1  UNL1        0.0000
     15 C           7.3854   -1.5565   12.9994 C.2     1  UNL1        0.0000
     16 H           7.9211   -2.4782   12.8137 H       1  UNL1        0.0000
     17 C           6.1816   -1.1650   12.3721 C.2     1  UNL1        0.0000
     18 H           5.5887   -1.7739   11.7037 H       1  UNL1        0.0000
     19 C           5.7560    0.0548   12.9773 C.2     1  UNL1        0.0000
     20 H           4.7857    0.5116   12.8302 H       1  UNL1        0.0000
     21 C          10.5919    1.7632   13.4477 C.ar    1  UNL1        0.0000
     22 C          11.0219    0.4426   13.4897 C.ar    1  UNL1        0.0000
     23 H          10.4509   -0.3170   12.9713 H       1  UNL1        0.0000
     24 C          12.1905    0.1102   14.1540 C.ar    1  UNL1        0.0000
     25 H          12.5193   -0.9183   14.1807 H       1  UNL1        0.0000
     26 C          12.9386    1.0950   14.7756 C.ar    1  UNL1        0.0000
     27 H          13.8481    0.8369   15.2983 H       1  UNL1        0.0000
     28 C          12.5288    2.4184   14.7127 C.ar    1  UNL1        0.0000
     29 H          13.1220    3.1905   15.1811 H       1  UNL1        0.0000
     30 C          11.3643    2.7545   14.0489 C.ar    1  UNL1        0.0000
     31 H          11.0608    3.7903   13.9856 H       1  UNL1        0.0000
     32 C           9.6445    3.4694   11.4628 C.ar    1  UNL1        0.0000
     33 C          10.8489    3.2321   10.8010 C.ar    1  UNL1        0.0000
     34 H          11.4015    2.3272   11.0190 H       1  UNL1        0.0000
     35 C          11.3278    4.1389    9.8751 C.ar    1  UNL1        0.0000
     36 H          12.2637    3.9494    9.3702 H       1  UNL1        0.0000
     37 C          10.6058    5.2872    9.5918 C.ar    1  UNL1        0.0000
     38 H          10.9768    5.9942    8.8644 H       1  UNL1        0.0000
     39 C           9.4079    5.5266   10.2430 C.ar    1  UNL1        0.0000
     40 H           8.8421    6.4210   10.0256 H       1  UNL1        0.0000
     41 C           8.9254    4.6236   11.1739 C.ar    1  UNL1        0.0000
     42 H           7.9903    4.8230   11.6745 H       1  UNL1        0.0000
     43 C           7.5492    4.7007   18.5457 C.3     1  UNL1        0.0000
     44 H           7.7057    5.6288   18.0068 H       1  UNL1        0.0000
     45 H           7.9540    4.8245   19.5438 H       1  UNL1        0.0000
     46 H           6.4790    4.5508   18.6386 H       1  UNL1        0.0000
     47 C           8.0716    1.5944   18.5922 C.3     1  UNL1        0.0000
     48 H           7.0089    1.4167   18.7354 H       1  UNL1        0.0000
     49 H           8.5365    1.5847   19.5727 H       1  UNL1        0.0000
     50 H           8.4718    0.7495   18.0365 H       1  UNL1        0.0000
     51 C          10.2699    3.4865   17.5022 C.3     1  UNL1        0.0000
     52 H          10.7218    2.6921   16.9123 H       1  UNL1        0.0000
     53 H          10.7657    3.4974   18.4673 H       1  UNL1        0.0000
     54 H          10.5002    4.4264   17.0073 H       1  UNL1        0.0000
@<TRIPOS>BOND
     1    38    37    1
     2    36    35    1
     3    37    35   ar
     4    37    39   ar
     5    35    33   ar
     6    40    39    1
     7    39    41   ar
     8    33    34    1
     9    33    32   ar
    10    41    32   ar
    11    41    42    1
    12    32     1    1
    13    18    17    1
    14    17    19    2
    15    17    15    1
    16     1    21    1
    17     1     4    1
    18    16    15    1
    19    20    19    1
    20    23    22    1
    21    19    12    1
    22    15    13    2
    23    21    22   ar
    24    21    30   ar
    25     6     4    1
    26    22    24   ar
    27     4     5    1
    28     4     7    1
    29    12    13    1
    30    12     9    1
    31    13    14    1
    32    31    30    1
    33    30    28   ar
    34    24    25    1
    35    24    26   ar
    36    11     9    1
    37    28    26   ar
    38    28    29    1
    39    26    27    1
    40     9     7    1
    41     9    10    1
    42     7     8    1
    43     7     3    1
    44     3     2    1
    45    52    51    1
    46    54    51    1
    47    51     2    1
    48    51    53    1
    49     2    43    1
    50     2    47    1
    51    44    43    1
    52    50    47    1
    53    43    46    1
    54    43    45    1
    55    47    48    1
    56    47    49    1
