@<TRIPOS>MOLECULE
1,6,7,8,10,12
 59 60 0 0 0
SMALL
GASTEIGER

@<TRIPOS>ATOM
      1 P           9.3402    4.0848    8.7350 P.3     1  UNL1        0.0000
      2 P           7.1205    6.4598    3.7122 P.3     1  UNL1        0.0000
      3 SI          9.4830    2.9120   11.6205 Si      1  UNL1        0.0000
      4 SI          5.4183    8.3023    1.8261 Si      1  UNL1        0.0000
      5 SI          8.7367    5.0565    5.8913 Si      1  UNL1        0.0000
      6 C           8.0670    4.4117    7.5598 C.3     1  UNL1        0.0000
      7 C           6.7037    4.1942    7.8129 C.3     1  UNL1        0.0000
      8 C           6.2205    3.6961    9.0458 C.3     1  UNL1        0.0000
      9 H           5.1444    3.6603    9.2006 H       1  UNL1        0.0000
     10 C           7.0590    3.3213   10.1067 C.3     1  UNL1        0.0000
     11 H           6.5760    2.9700   11.0197 H       1  UNL1        0.0000
     12 C           8.4536    3.4353   10.1072 C.2     1  UNL1        0.0000
     13 C           5.6755    4.5921    6.7890 C.3     1  UNL1        0.0000
     14 H           5.9783    4.3002    5.7854 H       1  UNL1        0.0000
     15 H           5.5486    5.6765    6.7952 H       1  UNL1        0.0000
     16 H           4.7118    4.1328    7.0056 H       1  UNL1        0.0000
     17 C           9.3680    4.3316   12.8954 C.3     1  UNL1        0.0000
     18 H           9.7380    5.2677   12.4874 H       1  UNL1        0.0000
     19 H           9.9604    4.0980   13.7735 H       1  UNL1        0.0000
     20 H           8.3458    4.4961   13.2240 H       1  UNL1        0.0000
     21 C          11.2706    2.6788   11.0122 C.3     1  UNL1        0.0000
     22 H          11.3099    1.9705   10.1881 H       1  UNL1        0.0000
     23 H          11.9109    2.3028   11.8032 H       1  UNL1        0.0000
     24 H          11.6947    3.6160   10.6618 H       1  UNL1        0.0000
     25 C           8.7880    1.2920   12.3414 C.3     1  UNL1        0.0000
     26 H           7.7974    1.4264   12.7661 H       1  UNL1        0.0000
     27 H           9.4317    0.9206   13.1321 H       1  UNL1        0.0000
     28 H           8.7194    0.5181   11.5814 H       1  UNL1        0.0000
     29 C           7.7720    6.6025    5.3293 C.ar    1  UNL1        0.0000
     30 C           7.6130    7.7306    6.1270 C.ar    1  UNL1        0.0000
     31 C           6.9108    8.8516    5.6961 C.ar    1  UNL1        0.0000
     32 H           6.8326    9.6905    6.3758 H       1  UNL1        0.0000
     33 C           6.3049    8.9668    4.4581 C.ar    1  UNL1        0.0000
     34 H           5.7841    9.8928    4.2444 H       1  UNL1        0.0000
     35 C           6.3143    7.9895    3.4788 C.ar    1  UNL1        0.0000
     36 C           8.2224    7.7770    7.4999 C.3     1  UNL1        0.0000
     37 H           9.3027    7.8893    7.4228 H       1  UNL1        0.0000
     38 H           8.0204    6.8618    8.0556 H       1  UNL1        0.0000
     39 H           7.8331    8.6194    8.0675 H       1  UNL1        0.0000
     40 C           6.1691    9.8472    0.9943 C.3     1  UNL1        0.0000
     41 H           6.0659   10.7272    1.6216 H       1  UNL1        0.0000
     42 H           5.6774   10.0586    0.0499 H       1  UNL1        0.0000
     43 H           7.2272    9.7114    0.7923 H       1  UNL1        0.0000
     44 C           3.5663    8.6016    2.1806 C.3     1  UNL1        0.0000
     45 H           3.1132    7.7405    2.6624 H       1  UNL1        0.0000
     46 H           3.0194    8.7914    1.2625 H       1  UNL1        0.0000
     47 H           3.4190    9.4571    2.8327 H       1  UNL1        0.0000
     48 C           5.6421    6.7743    0.7165 C.3     1  UNL1        0.0000
     49 H           6.6930    6.5756    0.5310 H       1  UNL1        0.0000
     50 H           5.1556    6.9097   -0.2440 H       1  UNL1        0.0000
     51 H           5.2197    5.8883    1.1801 H       1  UNL1        0.0000
     52 C          10.5913    5.4416    6.1320 C.3     1  UNL1        0.0000
     53 H          10.7854    6.0531    7.0080 H       1  UNL1        0.0000
     54 H          10.9898    5.9622    5.2673 H       1  UNL1        0.0000
     55 H          11.1502    4.5174    6.2488 H       1  UNL1        0.0000
     56 C           8.6057    3.6669    4.5941 C.3     1  UNL1        0.0000
     57 H           9.0567    2.7502    4.9687 H       1  UNL1        0.0000
     58 H           9.1259    3.9498    3.6848 H       1  UNL1        0.0000
     59 H           7.5800    3.4391    4.3211 H       1  UNL1        0.0000
@<TRIPOS>BOND
     1    50    48    1
     2    42    40    1
     3    49    48    1
     4    48    51    1
     5    48     4    1
     6    43    40    1
     7    40    41    1
     8    40     4    1
     9    46    44    1
    10     4    44    1
    11     4    35    1
    12    44    45    1
    13    44    47    1
    14    35     2   ar
    15    35    33   ar
    16    58    56    1
    17     2    29   ar
    18    34    33    1
    19    59    56    1
    20    33    31   ar
    21    56    57    1
    22    56     5    1
    23    54    52    1
    24    29     5    1
    25    29    30   ar
    26    31    30   ar
    27    31    32    1
    28    14    13    1
    29     5    52    1
    30     5     6    1
    31    30    36    1
    32    52    55    1
    33    52    53    1
    34    13    15    1
    35    13    16    1
    36    13     7    1
    37    37    36    1
    38    36    38    1
    39    36    39    1
    40     6     7    1
    41     6     1    1
    42     7     8    1
    43     1    12    2
    44     8     9    1
    45     8    10    1
    46    10    12    1
    47    10    11    1
    48    12     3    1
    49    22    21    1
    50    24    21    1
    51    21     3    1
    52    21    23    1
    53    28    25    1
    54     3    25    1
    55     3    17    1
    56    25    26    1
    57    25    27    1
    58    18    17    1
    59    17    20    1
    60    17    19    1
