@<TRIPOS>MOLECULE
1,8,9,10,11,12
 73 74 0 0 0
SMALL
GASTEIGER

@<TRIPOS>ATOM
      1 P           1.2834    2.7533    2.9708 P.3     1  UNL1        0.0000
      2 SI          3.6644    1.3203    4.0541 Si      1  UNL1        0.0000
      3 SI          3.5648    2.3814    0.9802 Si      1  UNL1        0.0000
      4 O           0.2410    2.7053    1.6378 O.2     1  UNL1        0.0000
      5 O          -1.3410    1.3400    0.6717 O.2     1  UNL1        0.0000
      6 O          -2.6392   -2.5424    5.5401 O.2     1  UNL1        0.0000
      7 O          -3.2156   -2.2806    3.3836 O.3     1  UNL1        0.0000
      8 C          -0.5889    3.8623    4.9097 C.2     1  UNL1        0.0000
      9 C          -1.2438    4.6193    3.8844 C.3     1  UNL1        0.0000
     10 C          -0.9708    6.0066    4.1164 C.2     1  UNL1        0.0000
     11 C          -0.1014    6.1038    5.2257 C.2     1  UNL1        0.0000
     12 C           0.1500    4.7762    5.7149 C.2     1  UNL1        0.0000
     13 C          -0.6467    2.3751    5.0687 C.3     1  UNL1        0.0000
     14 C          -2.3284    4.1347    2.9716 C.3     1  UNL1        0.0000
     15 C          -1.6079    7.1402    3.3809 C.3     1  UNL1        0.0000
     16 C           0.3473    7.3616    5.8964 C.3     1  UNL1        0.0000
     17 C           0.8044    4.5066    7.0348 C.3     1  UNL1        0.0000
     18 C           0.1780    1.6278    3.9887 C.3     1  UNL1        0.0000
     19 C          -0.6806    0.9989    2.9201 C.2     1  UNL1        0.0000
     20 C          -0.5942    1.6505    1.7302 C.2     1  UNL1        0.0000
     21 C          -1.2278    2.1548   -0.4830 C.3     1  UNL1        0.0000
     22 C          -1.5259   -0.1245    3.1393 C.2     1  UNL1        0.0000
     23 C          -1.6480   -0.7926    4.3038 C.2     1  UNL1        0.0000
     24 C          -2.5224   -1.9396    4.4951 C.2     1  UNL1        0.0000
     25 C          -4.0731   -3.3986    3.5217 C.3     1  UNL1        0.0000
     26 C           2.6585    1.8323    2.5394 C.3     1  UNL1        0.0000
     27 C           2.9769    2.0761    5.6747 C.3     1  UNL1        0.0000
     28 C           5.4982    1.8417    4.0241 C.3     1  UNL1        0.0000
     29 C           3.5902   -0.5865    4.2051 C.3     1  UNL1        0.0000
     30 C           2.4328    2.5462   -0.5505 C.3     1  UNL1        0.0000
     31 C           4.4508    4.0691    1.1514 C.3     1  UNL1        0.0000
     32 C           4.8524    1.0414    0.5263 C.3     1  UNL1        0.0000
     33 H          -1.6867    2.0436    5.0105 H       1  UNL1        0.0000
     34 H          -0.2703    2.1080    6.0569 H       1  UNL1        0.0000
     35 H          -2.1601    4.4683    1.9492 H       1  UNL1        0.0000
     36 H          -3.2872    4.5397    3.3007 H       1  UNL1        0.0000
     37 H          -2.3950    3.0502    2.9738 H       1  UNL1        0.0000
     38 H          -2.5531    7.4040    3.8590 H       1  UNL1        0.0000
     39 H          -1.8153    6.8663    2.3498 H       1  UNL1        0.0000
     40 H          -0.9691    8.0197    3.3837 H       1  UNL1        0.0000
     41 H           1.3204    7.2277    6.3612 H       1  UNL1        0.0000
     42 H          -0.3651    7.6404    6.6748 H       1  UNL1        0.0000
     43 H           0.4134    8.1819    5.1866 H       1  UNL1        0.0000
     44 H           0.1776    4.9056    7.8342 H       1  UNL1        0.0000
     45 H           1.7769    4.9899    7.0988 H       1  UNL1        0.0000
     46 H           0.9426    3.4440    7.2070 H       1  UNL1        0.0000
     47 H           0.8124    0.8673    4.4493 H       1  UNL1        0.0000
     48 H          -1.9984    1.8013   -1.1649 H       1  UNL1        0.0000
     49 H          -0.2437    2.0492   -0.9412 H       1  UNL1        0.0000
     50 H          -1.3960    3.2061   -0.2392 H       1  UNL1        0.0000
     51 H          -2.1039   -0.4495    2.2856 H       1  UNL1        0.0000
     52 H          -1.0869   -0.5161    5.1835 H       1  UNL1        0.0000
     53 H          -4.5473   -3.5408    2.5537 H       1  UNL1        0.0000
     54 H          -4.8242   -3.2117    4.2930 H       1  UNL1        0.0000
     55 H          -3.5014   -4.2863    3.8023 H       1  UNL1        0.0000
     56 H           3.7745    2.3363    6.3630 H       1  UNL1        0.0000
     57 H           2.3093    1.3990    6.1977 H       1  UNL1        0.0000
     58 H           2.4299    2.9859    5.4414 H       1  UNL1        0.0000
     59 H           6.0289    1.4128    4.8683 H       1  UNL1        0.0000
     60 H           5.6057    2.9197    4.0813 H       1  UNL1        0.0000
     61 H           5.9911    1.5054    3.1213 H       1  UNL1        0.0000
     62 H           4.0279   -0.9248    5.1388 H       1  UNL1        0.0000
     63 H           4.1423   -1.0545    3.3974 H       1  UNL1        0.0000
     64 H           2.5723   -0.9615    4.1593 H       1  UNL1        0.0000
     65 H           1.9033    1.6179   -0.7397 H       1  UNL1        0.0000
     66 H           3.0171    2.7755   -1.4367 H       1  UNL1        0.0000
     67 H           1.7068    3.3405   -0.4195 H       1  UNL1        0.0000
     68 H           3.7385    4.8590    1.3735 H       1  UNL1        0.0000
     69 H           4.9722    4.3385    0.2380 H       1  UNL1        0.0000
     70 H           5.1797    4.0527    1.9538 H       1  UNL1        0.0000
     71 H           4.8778    0.8701   -0.5443 H       1  UNL1        0.0000
     72 H           4.6295    0.0954    1.0060 H       1  UNL1        0.0000
     73 H           5.8506    1.3366    0.8276 H       1  UNL1        0.0000
@<TRIPOS>BOND
     1    66    30    1
     2    48    21    1
     3    49    21    1
     4    65    30    1
     5    30    67    1
     6    30     3    1
     7    71    32    1
     8    21    50    1
     9    21     5    1
    10    69    31    1
    11    32    73    1
    12    32     3    1
    13    32    72    1
    14     5    20    1
    15     3    31    1
    16     3    26    1
    17    31    68    1
    18    31    70    1
    19     4    20    1
    20     4     1    1
    21    20    19    2
    22    35    14    1
    23    51    22    1
    24    39    15    1
    25    26     1    1
    26    26     2    1
    27    53    25    1
    28    19    22    1
    29    19    18    1
    30     1    18    1
    31    14    37    1
    32    14    36    1
    33    14     9    1
    34    61    28    1
    35    22    23    2
    36    15    40    1
    37    15    38    1
    38    15    10    1
    39     7    25    1
    40     7    24    1
    41    63    29    1
    42    25    55    1
    43    25    54    1
    44     9    10    1
    45     9     8    1
    46    18    47    1
    47    18    13    1
    48    28     2    1
    49    28    60    1
    50    28    59    1
    51     2    29    1
    52     2    27    1
    53    10    11    2
    54    64    29    1
    55    29    62    1
    56    23    24    1
    57    23    52    1
    58    24     6    2
    59     8    13    1
    60     8    12    2
    61    33    13    1
    62    13    34    1
    63    43    16    1
    64    11    12    1
    65    11    16    1
    66    58    27    1
    67    27    57    1
    68    27    56    1
    69    12    17    1
    70    16    41    1
    71    16    42    1
    72    17    45    1
    73    17    46    1
    74    17    44    1
