@<TRIPOS>MOLECULE
3,4,5,15,24,33,34,36,38,40
 55 58 0 0 0
SMALL
GASTEIGER

@<TRIPOS>ATOM
      1 N          -1.6051   10.8338    4.2409 N.3     1  UNL1        0.0000
      2 SI          4.4468   10.0826    3.4170 Si      1  UNL1        0.0000
      3 B          -0.1933   10.8300    4.0161 B       1  UNL1        0.0000
      4 C           3.8471    8.3025    3.7286 C.3     1  UNL1        0.0000
      5 C           3.6353    7.2585    2.7511 C.ar    1  UNL1        0.0000
      6 C           3.6184    7.2916    1.3474 C.ar    1  UNL1        0.0000
      7 H           3.7469    8.2260    0.8194 H       1  UNL1        0.0000
      8 C           3.4614    6.1165    0.6444 C.ar    1  UNL1        0.0000
      9 H           3.4548    6.1384   -0.4366 H       1  UNL1        0.0000
     10 C           3.3235    4.8893    1.2978 C.ar    1  UNL1        0.0000
     11 H           3.2153    3.9873    0.7129 H       1  UNL1        0.0000
     12 C           3.3303    4.8228    2.6767 C.ar    1  UNL1        0.0000
     13 H           3.2316    3.8713    3.1809 H       1  UNL1        0.0000
     14 C           3.4802    5.9931    3.4128 C.ar    1  UNL1        0.0000
     15 C           3.5657    6.2286    4.8258 C.ar    1  UNL1        0.0000
     16 C           3.5164    5.3671    5.9162 C.ar    1  UNL1        0.0000
     17 H           3.3682    4.3066    5.7660 H       1  UNL1        0.0000
     18 C           3.6736    5.8785    7.1891 C.ar    1  UNL1        0.0000
     19 H           3.6488    5.2185    8.0444 H       1  UNL1        0.0000
     20 C           3.8815    7.2463    7.3863 C.ar    1  UNL1        0.0000
     21 H           4.0130    7.6160    8.3941 H       1  UNL1        0.0000
     22 C           3.9393    8.1266    6.3265 C.ar    1  UNL1        0.0000
     23 H           4.1407    9.1749    6.5037 H       1  UNL1        0.0000
     24 C           3.7803    7.6386    5.0157 C.ar    1  UNL1        0.0000
     25 C           5.2710   10.3499    1.7158 C.3     1  UNL1        0.0000
     26 H           4.5553   10.3775    0.9028 H       1  UNL1        0.0000
     27 H           5.9832    9.5597    1.5052 H       1  UNL1        0.0000
     28 H           5.8087   11.2918    1.7036 H       1  UNL1        0.0000
     29 C           5.7070   10.6836    4.7232 C.3     1  UNL1        0.0000
     30 H           6.3466   11.4546    4.3074 H       1  UNL1        0.0000
     31 H           6.3429    9.8676    5.0495 H       1  UNL1        0.0000
     32 H           5.2293   11.1017    5.6016 H       1  UNL1        0.0000
     33 C           2.7322   10.8906    3.5600 C.3     1  UNL1        0.0000
     34 C           2.1961   11.0533    4.8595 C.3     1  UNL1        0.0000
     35 H           2.8980   11.2864    5.6587 H       1  UNL1        0.0000
     36 C           0.8387   11.0154    5.1480 C.2     1  UNL1        0.0000
     37 H           0.5655   11.2823    6.1677 H       1  UNL1        0.0000
     38 C           1.8356   10.7206    2.4793 C.3     1  UNL1        0.0000
     39 H           2.2641   10.6980    1.4775 H       1  UNL1        0.0000
     40 C           0.4521   10.6549    2.6228 C.3     1  UNL1        0.0000
     41 H          -0.1187   10.6423    1.6941 H       1  UNL1        0.0000
     42 C          -2.1908   11.0005    5.5541 C.3     1  UNL1        0.0000
     43 H          -3.1578   10.4879    5.5891 H       1  UNL1        0.0000
     44 H          -1.5470   10.5308    6.3028 H       1  UNL1        0.0000
     45 C          -2.3871   12.4762    5.9127 C.3     1  UNL1        0.0000
     46 H          -2.8199   12.5735    6.9055 H       1  UNL1        0.0000
     47 H          -1.4301   12.9902    5.8892 H       1  UNL1        0.0000
     48 H          -3.0491   12.9562    5.1958 H       1  UNL1        0.0000
     49 C          -2.5720   10.6705    3.1781 C.3     1  UNL1        0.0000
     50 H          -2.1633   11.0782    2.2513 H       1  UNL1        0.0000
     51 H          -3.4785   11.2390    3.4136 H       1  UNL1        0.0000
     52 C          -2.9325    9.1963    2.9681 C.3     1  UNL1        0.0000
     53 H          -2.0217    8.6235    2.7933 H       1  UNL1        0.0000
     54 H          -3.5997    9.0802    2.1170 H       1  UNL1        0.0000
     55 H          -3.4238    8.7933    3.8515 H       1  UNL1        0.0000
@<TRIPOS>BOND
     1     9     8    1
     2     8    10   ar
     3     8     6   ar
     4    11    10    1
     5     7     6    1
     6    26    25    1
     7    10    12   ar
     8     6     5   ar
     9    39    38    1
    10    27    25    1
    11    41    40    1
    12    28    25    1
    13    25     2    1
    14    54    52    1
    15    50    49    1
    16    38    40    1
    17    38    33    1
    18    40     3    1
    19    12    13    1
    20    12    14   ar
    21     5    14   ar
    22     5     4    1
    23    53    52    1
    24    52    49    1
    25    52    55    1
    26    49    51    1
    27    49     1    1
    28    14    15    1
    29     2    33    1
    30     2     4    1
    31     2    29    1
    32    33    34    1
    33     4    24    1
    34     3     1    1
    35     3    36    2
    36     1    42    1
    37    30    29    1
    38    29    31    1
    39    29    32    1
    40    15    24   ar
    41    15    16   ar
    42    34    36    1
    43    34    35    1
    44    24    22   ar
    45    36    37    1
    46    48    45    1
    47    42    43    1
    48    42    45    1
    49    42    44    1
    50    17    16    1
    51    47    45    1
    52    45    46    1
    53    16    18   ar
    54    22    23    1
    55    22    20   ar
    56    18    20   ar
    57    18    19    1
    58    20    21    1
