@<TRIPOS>MOLECULE
1,3,5
 54 57 0 0 0
SMALL
GASTEIGER

@<TRIPOS>ATOM
      1 N          14.6630    7.4968   15.1408 N.pl3   1  UNL1       -0.1689
      2 N          15.1936    8.7005   15.3998 N.3     1  UNL1       -0.1743
      3 N          17.0559    7.4315   16.9937 N.pl3   1  UNL1       -0.1689
      4 N          17.3217    8.5958   16.3781 N.3     1  UNL1       -0.1743
      5 O          17.4924    6.9644   14.1703 O.3     1  UNL1       -0.2142
      6 C          16.1212    8.3684   12.7851 C.ar    1  UNL1       -0.0054
      7 C          15.2873    9.4682   12.6111 C.ar    1  UNL1       -0.0553
      8 H          15.3474   10.3270   13.2646 H       1  UNL1        0.0621
      9 C          14.3450    9.4847   11.5974 C.ar    1  UNL1       -0.0614
     10 H          13.7012   10.3456   11.4830 H       1  UNL1        0.0618
     11 C          14.2213    8.4075   10.7380 C.ar    1  UNL1       -0.0617
     12 H          13.4807    8.4237    9.9517 H       1  UNL1        0.0618
     13 C          15.0548    7.3142   10.8956 C.ar    1  UNL1       -0.0614
     14 H          14.9710    6.4682   10.2293 H       1  UNL1        0.0618
     15 C          15.9951    7.2979   11.9091 C.ar    1  UNL1       -0.0553
     16 H          16.6494    6.4481   12.0407 H       1  UNL1        0.0621
     17 C          18.4369    9.0436   13.5193 C.ar    1  UNL1       -0.0054
     18 C          18.4026   10.2593   12.8483 C.ar    1  UNL1       -0.0553
     19 H          17.4630   10.6806   12.5245 H       1  UNL1        0.0621
     20 C          19.5775   10.9357   12.5659 C.ar    1  UNL1       -0.0614
     21 H          19.5373   11.8783   12.0388 H       1  UNL1        0.0618
     22 C          20.7989   10.4096   12.9511 C.ar    1  UNL1       -0.0617
     23 H          21.7124   10.9424   12.7301 H       1  UNL1        0.0618
     24 C          20.8404    9.1930   13.6109 C.ar    1  UNL1       -0.0614
     25 H          21.7881    8.7693   13.9092 H       1  UNL1        0.0618
     26 C          19.6675    8.5157   13.8895 C.ar    1  UNL1       -0.0553
     27 H          19.6805    7.5597   14.3905 H       1  UNL1        0.0621
     28 C          17.1729    8.2471   13.8964 C.3     1  UNL1        0.1858
     29 C          16.5904    8.9854   15.2013 C.3     1  UNL1        0.1415
     30 H          16.7109   10.0661   15.0816 H       1  UNL1        0.0701
     31 C          14.5435   10.9849   16.1979 C.3     1  UNL1       -0.0392
     32 H          14.9300   11.5671   15.3604 H       1  UNL1        0.0252
     33 H          15.2779   11.0121   17.0034 H       1  UNL1        0.0252
     34 H          13.6295   11.4583   16.5457 H       1  UNL1        0.0252
     35 C          14.2486    9.5842   15.7981 C.3     1  UNL1        0.0831
     36 C          13.0488    8.9087   15.7722 C.2     1  UNL1       -0.0406
     37 H          12.0827    9.2989   16.0204 H       1  UNL1        0.0608
     38 C          13.3590    7.6071   15.3496 C.2     1  UNL1        0.0395
     39 C          12.4112    6.4863   15.1148 C.3     1  UNL1       -0.0237
     40 H          12.1617    6.4323   14.0551 H       1  UNL1        0.0291
     41 H          11.4931    6.6435   15.6769 H       1  UNL1        0.0291
     42 H          12.8683    5.5418   15.4000 H       1  UNL1        0.0291
     43 C          18.7414   10.6504   16.6166 C.3     1  UNL1       -0.0392
     44 H          19.1939   10.6015   15.6276 H       1  UNL1        0.0252
     45 H          19.4879   10.9998   17.3245 H       1  UNL1        0.0252
     46 H          17.9291   11.3783   16.5867 H       1  UNL1        0.0252
     47 C          18.2535    9.3142   17.0450 C.3     1  UNL1        0.0831
     48 C          18.5958    8.5677   18.1528 C.2     1  UNL1       -0.0406
     49 H          19.3105    8.8249   18.9076 H       1  UNL1        0.0608
     50 C          17.8205    7.4021   18.0796 C.2     1  UNL1        0.0395
     51 C          17.7767    6.2826   19.0567 C.3     1  UNL1       -0.0237
     52 H          16.9795    5.5964   18.7866 H       1  UNL1        0.0291
     53 H          17.6111    6.6689   20.0623 H       1  UNL1        0.0291
     54 H          18.7230    5.7446   19.0505 H       1  UNL1        0.0291
@<TRIPOS>BOND
     1    12    11    1
     2    14    13    1
     3    11    13   ar
     4    11     9   ar
     5    13    15   ar
     6    10     9    1
     7     9     7   ar
     8    15    16    1
     9    15     6   ar
    10    21    20    1
    11    19    18    1
    12    20    18   ar
    13    20    22   ar
    14     7     6   ar
    15     7     8    1
    16    23    22    1
    17     6    28    1
    18    18    17   ar
    19    22    24   ar
    20    17    26   ar
    21    17    28    1
    22    24    26   ar
    23    24    25    1
    24    26    27    1
    25    28     5    1
    26    28    29    1
    27    40    39    1
    28    30    29    1
    29    39    38    1
    30    39    42    1
    31    39    41    1
    32     1    38    1
    33     1     2    1
    34    29     2    1
    35    29     4    1
    36    38    36    2
    37    32    31    1
    38     2    35    1
    39    44    43    1
    40    36    35    1
    41    36    37    1
    42    35    31    1
    43    31    34    1
    44    31    33    1
    45     4     3    1
    46     4    47    1
    47    46    43    1
    48    43    47    1
    49    43    45    1
    50     3    50    1
    51    47    48    1
    52    50    48    2
    53    50    51    1
    54    48    49    1
    55    52    51    1
    56    54    51    1
    57    51    53    1
