@<TRIPOS>MOLECULE
1,2,3
 60 61 0 0 0
SMALL
GASTEIGER

@<TRIPOS>ATOM
      1 O          -7.0703   -5.1729   -5.5418 O.3     1  UNL1       -0.4932
      2 N          -6.2181   -3.0441   -4.2979 N.pl3   1  UNL1       -0.2154
      3 N          -4.6883   -2.8167   -2.7447 N.pl3   1  UNL1       -0.2185
      4 C          -5.8973   -2.4588   -3.1495 C.3     1  UNL1        0.1808
      5 C          -6.8821   -1.6573   -2.2747 C.3     1  UNL1        0.0070
      6 C          -8.3415   -1.9811   -2.6286 C.3     1  UNL1       -0.0563
      7 H          -8.4842   -3.0545   -2.7320 H       1  UNL1        0.0236
      8 H          -8.6611   -1.5021   -3.5477 H       1  UNL1        0.0236
      9 H          -8.9884   -1.6291   -1.8266 H       1  UNL1        0.0236
     10 C          -6.6498   -0.1453   -2.3829 C.3     1  UNL1       -0.0563
     11 H          -5.6973    0.1246   -1.9352 H       1  UNL1        0.0236
     12 H          -7.4402    0.3783   -1.8472 H       1  UNL1        0.0236
     13 H          -6.6593    0.1957   -3.4148 H       1  UNL1        0.0236
     14 C          -6.7001   -2.0529   -0.8028 C.3     1  UNL1       -0.0563
     15 H          -6.8529   -3.1216   -0.6781 H       1  UNL1        0.0236
     16 H          -7.4348   -1.5271   -0.1947 H       1  UNL1        0.0236
     17 H          -5.7127   -1.7885   -0.4381 H       1  UNL1        0.0236
     18 C          -7.2180   -2.8368   -5.2119 C.ar    1  UNL1        0.0920
     19 C          -7.6853   -3.9823   -5.9043 C.ar    1  UNL1        0.1426
     20 C          -8.6541   -3.8643   -6.8814 C.ar    1  UNL1       -0.0181
     21 H          -9.0406   -4.7348   -7.3878 H       1  UNL1        0.0655
     22 C          -9.1370   -2.6118   -7.2415 C.ar    1  UNL1       -0.0582
     23 H          -9.8942   -2.5341   -8.0062 H       1  UNL1        0.0619
     24 C          -8.6209   -1.4785   -6.6455 C.ar    1  UNL1       -0.0597
     25 H          -8.9572   -0.5003   -6.9565 H       1  UNL1        0.0618
     26 C          -7.6705   -1.5888   -5.6473 C.ar    1  UNL1       -0.0355
     27 H          -7.2464   -0.6970   -5.2117 H       1  UNL1        0.0638
     28 C          -7.4821   -6.3421   -6.2218 C.3     1  UNL1        0.0789
     29 H          -8.5371   -6.5609   -6.0256 H       1  UNL1        0.0660
     30 H          -6.8650   -7.1475   -5.8263 H       1  UNL1        0.0660
     31 H          -7.3216   -6.2544   -7.3005 H       1  UNL1        0.0660
     32 C          -3.8537   -2.2134   -1.8113 C.ar    1  UNL1        0.0573
     33 C          -3.2223   -0.9905   -2.1307 C.ar    1  UNL1       -0.0219
     34 C          -2.3090   -0.4490   -1.2404 C.ar    1  UNL1       -0.0565
     35 H          -1.8246    0.4862   -1.4750 H       1  UNL1        0.0621
     36 C          -1.9923   -1.0894   -0.0562 C.ar    1  UNL1       -0.0611
     37 H          -1.2882   -0.6440    0.6310 H       1  UNL1        0.0618
     38 C          -2.5595   -2.3179    0.2236 C.ar    1  UNL1       -0.0565
     39 H          -2.2801   -2.8338    1.1304 H       1  UNL1        0.0621
     40 C          -3.4785   -2.8971   -0.6371 C.ar    1  UNL1       -0.0219
     41 C          -3.4325   -0.3557   -3.4894 C.3     1  UNL1       -0.0197
     42 H          -4.4179   -0.6440   -3.8643 H       1  UNL1        0.0344
     43 C          -3.3568    1.1714   -3.4778 C.3     1  UNL1       -0.0586
     44 H          -3.9701    1.5905   -2.6832 H       1  UNL1        0.0235
     45 H          -3.7140    1.5625   -4.4284 H       1  UNL1        0.0235
     46 H          -2.3337    1.5138   -3.3418 H       1  UNL1        0.0235
     47 C          -2.3888   -0.9253   -4.4580 C.3     1  UNL1       -0.0586
     48 H          -2.5340   -2.0015   -4.5785 H       1  UNL1        0.0235
     49 H          -1.3843   -0.7413   -4.0799 H       1  UNL1        0.0235
     50 H          -2.4849   -0.4531   -5.4330 H       1  UNL1        0.0235
     51 C          -4.0237   -4.2756   -0.3362 C.3     1  UNL1       -0.0197
     52 H          -4.7902   -4.5104   -1.0853 H       1  UNL1        0.0344
     53 C          -4.6472   -4.3682    1.0587 C.3     1  UNL1       -0.0586
     54 H          -5.3762   -3.5779    1.2179 H       1  UNL1        0.0235
     55 H          -3.8857   -4.2879    1.8312 H       1  UNL1        0.0235
     56 H          -5.1478   -5.3274    1.1781 H       1  UNL1        0.0235
     57 C          -2.9034   -5.3105   -0.4752 C.3     1  UNL1       -0.0586
     58 H          -2.5187   -5.2996   -1.4915 H       1  UNL1        0.0235
     59 H          -3.2810   -6.3070   -0.2571 H       1  UNL1        0.0235
     60 H          -2.0922   -5.0918    0.2173 H       1  UNL1        0.0235
@<TRIPOS>BOND
     1    23    22    1
     2    21    20    1
     3    31    28    1
     4    22    20   ar
     5    22    24   ar
     6    25    24    1
     7    20    19   ar
     8    24    26   ar
     9    28    29    1
    10    28    30    1
    11    28     1    1
    12    19     1    1
    13    19    18   ar
    14    26    18   ar
    15    26    27    1
    16    50    47    1
    17    18     2    1
    18    48    47    1
    19    47    49    1
    20    47    41    1
    21    45    43    1
    22     2     4    1
    23    42    41    1
    24     8     6    1
    25    41    43    1
    26    41    33    1
    27    43    46    1
    28    43    44    1
    29    13    10    1
    30     4     3    1
    31     4     5    1
    32     3    32    1
    33     7     6    1
    34     6     5    1
    35     6     9    1
    36    10     5    1
    37    10    11    1
    38    10    12    1
    39     5    14    1
    40    33    32   ar
    41    33    34   ar
    42    32    40   ar
    43    58    57    1
    44    35    34    1
    45    34    36   ar
    46    52    51    1
    47    14    15    1
    48    14    17    1
    49    14    16    1
    50    40    51    1
    51    40    38   ar
    52    57    51    1
    53    57    59    1
    54    57    60    1
    55    51    53    1
    56    36    38   ar
    57    36    37    1
    58    38    39    1
    59    53    56    1
    60    53    54    1
    61    53    55    1
