@<TRIPOS>MOLECULE
1,2,3
 58 59 0 0 0
SMALL
GASTEIGER

@<TRIPOS>ATOM
      1 N           7.7445    3.9868   15.4668 N.pl3   1  UNL1       -0.2381
      2 N           5.6628    3.2324   17.2338 N.pl3   1  UNL1       -0.2412
      3 O           9.1220    6.2452   16.0853 O.3     1  UNL1       -0.4932
      4 C           9.8484    7.4190   16.4040 C.3     1  UNL1        0.0789
      5 H          10.4711    7.2727   17.2923 H       1  UNL1        0.0660
      6 H           9.1053    8.1864   16.6111 H       1  UNL1        0.0660
      7 H          10.4738    7.7341   15.5623 H       1  UNL1        0.0660
      8 C           9.8710    5.1232   15.7406 C.ar    1  UNL1        0.1425
      9 C          11.2531    5.0863   15.7436 C.ar    1  UNL1       -0.0181
     10 H          11.8289    5.9585   16.0084 H       1  UNL1        0.0655
     11 C          11.9294    3.9217   15.4060 C.ar    1  UNL1       -0.0582
     12 H          13.0083    3.9144   15.4106 H       1  UNL1        0.0619
     13 C          11.2174    2.7831   15.0830 C.ar    1  UNL1       -0.0597
     14 H          11.7357    1.8672   14.8408 H       1  UNL1        0.0618
     15 C           9.8369    2.8117   15.0757 C.ar    1  UNL1       -0.0355
     16 H           9.2801    1.9126   14.8599 H       1  UNL1        0.0638
     17 C           9.1252    3.9766   15.3825 C.ar    1  UNL1        0.0900
     18 C           7.0080    3.2929   14.5946 C.3     1  UNL1        0.0792
     19 C           7.4961    3.0603   13.1794 C.3     1  UNL1       -0.0395
     20 H           8.3847    3.6505   12.9665 H       1  UNL1        0.0252
     21 H           6.7096    3.3355   12.4787 H       1  UNL1        0.0252
     22 H           7.7286    2.0092   13.0140 H       1  UNL1        0.0252
     23 C           5.7750    2.7377   14.9075 C.3     1  UNL1        0.0158
     24 H           5.2550    2.2369   14.1027 H       1  UNL1        0.0349
     25 C           5.2462    2.5480   16.1985 C.3     1  UNL1        0.0791
     26 C           4.2026    1.4643   16.3396 C.3     1  UNL1       -0.0395
     27 H           4.4784    0.5880   15.7573 H       1  UNL1        0.0252
     28 H           3.2473    1.8309   15.9642 H       1  UNL1        0.0252
     29 H           4.0818    1.1779   17.3819 H       1  UNL1        0.0252
     30 C           5.3920    2.8249   18.5569 C.ar    1  UNL1        0.0553
     31 C           4.2616    3.2794   19.2509 C.ar    1  UNL1       -0.0220
     32 C           4.1227    2.9553   20.5932 C.ar    1  UNL1       -0.0565
     33 H           3.2613    3.3073   21.1406 H       1  UNL1        0.0621
     34 C           5.0693    2.1861   21.2409 C.ar    1  UNL1       -0.0611
     35 H           4.9513    1.9489   22.2879 H       1  UNL1        0.0618
     36 C           6.1641    1.7104   20.5420 C.ar    1  UNL1       -0.0565
     37 H           6.8916    1.0995   21.0540 H       1  UNL1        0.0621
     38 C           6.3377    2.0051   19.1994 C.ar    1  UNL1       -0.0220
     39 C           3.2090    4.1160   18.5585 C.3     1  UNL1       -0.0197
     40 H           3.4743    4.2011   17.4971 H       1  UNL1        0.0344
     41 C           3.1811    5.5251   19.1543 C.3     1  UNL1       -0.0586
     42 H           2.8906    5.4940   20.2020 H       1  UNL1        0.0235
     43 H           2.4680    6.1490   18.6191 H       1  UNL1        0.0235
     44 H           4.1725    5.9765   19.0806 H       1  UNL1        0.0235
     45 C           1.8282    3.4616   18.6510 C.3     1  UNL1       -0.0586
     46 H           1.8573    2.4440   18.2678 H       1  UNL1        0.0235
     47 H           1.1062    4.0298   18.0681 H       1  UNL1        0.0235
     48 H           1.4814    3.4276   19.6807 H       1  UNL1        0.0235
     49 C           7.5365    1.4841   18.4361 C.3     1  UNL1       -0.0197
     50 H           7.3192    1.5541   17.3657 H       1  UNL1        0.0344
     51 C           8.7571    2.3642   18.7206 C.3     1  UNL1       -0.0586
     52 H           8.9862    2.3660   19.7846 H       1  UNL1        0.0235
     53 H           8.5594    3.3897   18.4012 H       1  UNL1        0.0235
     54 H           9.6242    1.9966   18.1749 H       1  UNL1        0.0235
     55 C           7.8404    0.0197   18.7554 C.3     1  UNL1       -0.0586
     56 H           8.2290   -0.0946   19.7642 H       1  UNL1        0.0235
     57 H           8.5898   -0.3598   18.0638 H       1  UNL1        0.0235
     58 H           6.9428   -0.5875   18.6594 H       1  UNL1        0.0235
@<TRIPOS>BOND
     1    21    19    1
     2    20    19    1
     3    22    19    1
     4    19    18    1
     5    24    23    1
     6    18    23    1
     7    18     1    1
     8    14    13    1
     9    16    15    1
    10    23    25    1
    11    15    13   ar
    12    15    17   ar
    13    13    11   ar
    14    17     1    1
    15    17     8   ar
    16    11    12    1
    17    11     9   ar
    18     7     4    1
    19     8     9   ar
    20     8     3    1
    21     9    10    1
    22    27    26    1
    23    28    26    1
    24     3     4    1
    25    25    26    1
    26    25     2    1
    27    26    29    1
    28     4     6    1
    29     4     5    1
    30     2    30    1
    31    50    49    1
    32    40    39    1
    33    57    55    1
    34    47    45    1
    35    54    51    1
    36    46    45    1
    37    53    51    1
    38    49    51    1
    39    49    55    1
    40    49    38    1
    41    30    38   ar
    42    30    31   ar
    43    39    45    1
    44    39    41    1
    45    39    31    1
    46    43    41    1
    47    45    48    1
    48    58    55    1
    49    51    52    1
    50    55    56    1
    51    44    41    1
    52    41    42    1
    53    38    36   ar
    54    31    32   ar
    55    36    37    1
    56    36    34   ar
    57    32    33    1
    58    32    34   ar
    59    34    35    1
