@<TRIPOS>MOLECULE
1,2,3
 27 27 0 0 0
SMALL
GASTEIGER

@<TRIPOS>ATOM
      1 O           5.0708    7.9952    3.2702 O.3     1  UNL1       -0.2199
      2 N           4.6432    5.2412    3.3239 N.pl3   1  UNL1       -0.2528
      3 N           2.6045    5.5587    1.7978 N.pl3   1  UNL1       -0.2434
      4 C           6.9177    8.8345    4.5007 C.3     1  UNL1       -0.0259
      5 H           6.5732    9.7626    4.0531 H       1  UNL1        0.0263
      6 H           7.9560    8.6639    4.2255 H       1  UNL1        0.0263
      7 H           6.8598    8.9178    5.5841 H       1  UNL1        0.0263
      8 C           6.0484    7.6887    4.0194 C.3     1  UNL1        0.1565
      9 C           6.3854    6.4095    4.4356 C.2     1  UNL1       -0.0284
     10 H           7.2480    6.3116    5.0758 H       1  UNL1        0.0618
     11 C           5.7019    5.2322    4.0971 C.2     1  UNL1        0.0212
     12 C           6.2326    3.9375    4.6587 C.3     1  UNL1       -0.0252
     13 H           5.4726    3.4447    5.2652 H       1  UNL1        0.0290
     14 H           7.1064    4.1178    5.2768 H       1  UNL1        0.0290
     15 H           6.5099    3.2575    3.8532 H       1  UNL1        0.0290
     16 C           3.9809    4.0002    3.0083 C.3     1  UNL1        0.0601
     17 H           3.6236    3.4999    3.9201 H       1  UNL1        0.0507
     18 H           4.6651    3.3039    2.5024 H       1  UNL1        0.0507
     19 C           2.8095    4.2683    2.1116 C.3     1  UNL1        0.1164
     20 C           1.9974    3.2502    1.6414 C.2     1  UNL1       -0.0551
     21 H           2.2055    2.2288    1.9226 H       1  UNL1        0.0595
     22 C           0.9278    3.5576    0.8150 C.2     1  UNL1       -0.0623
     23 H           0.2817    2.7817    0.4357 H       1  UNL1        0.0616
     24 C           0.7167    4.8938    0.4926 C.2     1  UNL1       -0.0466
     25 H          -0.1014    5.1861   -0.1461 H       1  UNL1        0.0630
     26 C           1.5689    5.8499    1.0001 C.2     1  UNL1        0.0125
     27 H           1.4643    6.9031    0.7912 H       1  UNL1        0.0797
@<TRIPOS>BOND
     1    25    24    1
     2    23    22    1
     3    24    22    1
     4    24    26    2
     5    27    26    1
     6    22    20    2
     7    26     3    1
     8    20    21    1
     9    20    19    1
    10     3    19    1
    11    19    16    1
    12    18    16    1
    13    16     2    1
    14    16    17    1
    15     1     8    1
    16     2    11    1
    17    15    12    1
    18     8     9    1
    19     8     4    1
    20     5     4    1
    21    11     9    2
    22    11    12    1
    23     6     4    1
    24     9    10    1
    25     4     7    1
    26    12    13    1
    27    12    14    1
