@<TRIPOS>MOLECULE
3,4,5
 47 46 0 0 0
SMALL
GASTEIGER

@<TRIPOS>ATOM
      1 SI         -0.5563   -0.3340    3.7414 Si      1  UNL1        0.0000
      2 SI          1.8193    0.1375    5.6579 Si      1  UNL1        0.0000
      3 O           1.0219   -0.1881    4.2368 O.3     1  UNL1        0.0000
      4 N          -0.9193    1.2875    3.3319 N.3     1  UNL1        0.0000
      5 N           1.8815    1.8466    5.6103 N.3     1  UNL1        0.0000
      6 C          -1.6537   -1.1290    5.0982 C.3     1  UNL1        0.0000
      7 C          -0.4248   -1.6634    2.3639 C.3     1  UNL1        0.0000
      8 C           0.9280   -0.6490    7.1615 C.3     1  UNL1        0.0000
      9 C           3.4356   -0.8769    5.4484 C.3     1  UNL1        0.0000
     10 C          -2.0734    1.6371    2.5108 C.3     1  UNL1        0.0000
     11 C           2.7688    2.6098    6.4810 C.3     1  UNL1        0.0000
     12 C          -2.4024    3.1326    2.6793 C.3     1  UNL1        0.0000
     13 C          -3.3255    0.8408    2.9076 C.3     1  UNL1        0.0000
     14 C          -1.7828    1.3615    1.0241 C.3     1  UNL1        0.0000
     15 C           2.3019    4.0760    6.5489 C.3     1  UNL1        0.0000
     16 C           2.7809    2.0602    7.9151 C.3     1  UNL1        0.0000
     17 C           4.2118    2.5784    5.9448 C.3     1  UNL1        0.0000
     18 H          -2.6133   -1.4320    4.6931 H       1  UNL1        0.0000
     19 H          -1.8445   -0.4541    5.9266 H       1  UNL1        0.0000
     20 H          -1.1792   -2.0171    5.5001 H       1  UNL1        0.0000
     21 H          -1.4002   -1.8825    1.9409 H       1  UNL1        0.0000
     22 H          -0.0238   -2.5925    2.7563 H       1  UNL1        0.0000
     23 H           0.2260   -1.3438    1.5554 H       1  UNL1        0.0000
     24 H           1.5795   -0.6727    8.0285 H       1  UNL1        0.0000
     25 H           0.0295   -0.1076    7.4393 H       1  UNL1        0.0000
     26 H           0.6433   -1.6723    6.9442 H       1  UNL1        0.0000
     27 H           4.0096   -0.5472    4.5874 H       1  UNL1        0.0000
     28 H           4.0682   -0.7862    6.3259 H       1  UNL1        0.0000
     29 H           3.2193   -1.9316    5.3106 H       1  UNL1        0.0000
     30 H          -3.1497    3.4385    1.9488 H       1  UNL1        0.0000
     31 H          -2.8014    3.3165    3.6741 H       1  UNL1        0.0000
     32 H          -1.5034    3.7386    2.5362 H       1  UNL1        0.0000
     33 H          -4.1957    1.2113    2.3697 H       1  UNL1        0.0000
     34 H          -3.5046    0.9308    3.9754 H       1  UNL1        0.0000
     35 H          -3.1899   -0.2087    2.6705 H       1  UNL1        0.0000
     36 H          -2.6234    1.6654    0.4031 H       1  UNL1        0.0000
     37 H          -1.6061    0.3007    0.8803 H       1  UNL1        0.0000
     38 H          -0.8948    1.9027    0.7078 H       1  UNL1        0.0000
     39 H           3.0401    4.6833    7.0704 H       1  UNL1        0.0000
     40 H           1.3604    4.1432    7.0891 H       1  UNL1        0.0000
     41 H           2.1664    4.4778    5.5412 H       1  UNL1        0.0000
     42 H           3.3397    2.7247    8.5710 H       1  UNL1        0.0000
     43 H           3.2448    1.0803    7.9341 H       1  UNL1        0.0000
     44 H           1.7652    1.9654    8.2878 H       1  UNL1        0.0000
     45 H           4.8681    3.1846    6.5664 H       1  UNL1        0.0000
     46 H           4.5756    1.5563    5.9435 H       1  UNL1        0.0000
     47 H           4.2428    2.9545    4.9254 H       1  UNL1        0.0000
@<TRIPOS>BOND
     1    36    14    1
     2    38    14    1
     3    37    14    1
     4    14    10    1
     5    23     7    1
     6    21     7    1
     7    30    12    1
     8     7    22    1
     9     7     1    1
    10    33    13    1
    11    10    12    1
    12    10    13    1
    13    10     4    1
    14    32    12    1
    15    35    13    1
    16    12    31    1
    17    13    34    1
    18     4     1    1
    19     1     3    1
    20     1     6    1
    21     3     2    1
    22    27     9    1
    23    18     6    1
    24    47    17    1
    25     6    20    1
    26     6    19    1
    27    29     9    1
    28     9     2    1
    29     9    28    1
    30    41    15    1
    31     5     2    1
    32     5    11    1
    33     2     8    1
    34    46    17    1
    35    17    11    1
    36    17    45    1
    37    11    15    1
    38    11    16    1
    39    15    39    1
    40    15    40    1
    41    26     8    1
    42     8    25    1
    43     8    24    1
    44    16    43    1
    45    16    44    1
    46    16    42    1
