@<TRIPOS>MOLECULE
1,2,4
 81 81 0 0 0
SMALL
GASTEIGER

@<TRIPOS>ATOM
      1 O           8.1250    6.3267    1.2979 O.3     1  UNL1       -0.2873
      2 N          10.8288    5.1827    1.0109 N.3     1  UNL1       -0.2956
      3 N          11.9492    3.3520    4.1326 N.3     1  UNL1       -0.3016
      4 N          10.5890    4.5188   -1.9167 N.3     1  UNL1       -0.3016
      5 C           8.6510    6.9272    2.3444 C.ar    1  UNL1        0.1870
      6 C          10.0486    7.0937    2.4510 C.ar    1  UNL1        0.0138
      7 C          10.6101    7.7188    3.5552 C.ar    1  UNL1       -0.0500
      8 C           9.8301    8.1920    4.5956 C.ar    1  UNL1       -0.0412
      9 C           8.4495    8.0413    4.4732 C.ar    1  UNL1       -0.0507
     10 C           7.8365    7.4378    3.3923 C.ar    1  UNL1        0.0052
     11 C           6.3183    7.3406    3.2830 C.3     1  UNL1       -0.0090
     12 C           5.8910    5.8727    3.1417 C.3     1  UNL1       -0.0559
     13 C           5.5942    7.9212    4.5037 C.3     1  UNL1       -0.0559
     14 C           5.8667    8.1275    2.0448 C.3     1  UNL1       -0.0559
     15 C          10.4060    8.8839    5.8224 C.3     1  UNL1       -0.0127
     16 C           9.9539   10.3509    5.8198 C.3     1  UNL1       -0.0560
     17 C           9.9013    8.1929    7.0971 C.3     1  UNL1       -0.0560
     18 C          11.9371    8.8520    5.8475 C.3     1  UNL1       -0.0560
     19 C          10.9553    6.6287    1.3377 C.3     1  UNL1        0.0278
     20 C          10.7466    4.3711    2.2385 C.3     1  UNL1        0.0120
     21 C          11.9483    4.4619    3.1910 C.3     1  UNL1        0.0117
     22 C          10.7360    3.2487    4.9314 C.3     1  UNL1       -0.0039
     23 C          10.3624    4.4758    5.7710 C.3     1  UNL1       -0.0524
     24 C          13.1783    3.3302    4.9129 C.3     1  UNL1       -0.0039
     25 C          13.3950    2.0001    5.6276 C.3     1  UNL1       -0.0524
     26 C          11.9600    4.7500    0.1838 C.3     1  UNL1        0.0120
     27 C          11.7915    5.0984   -1.2953 C.3     1  UNL1        0.0117
     28 C          10.5968    3.0375   -1.8780 C.3     1  UNL1       -0.0039
     29 C          11.8415    2.3304   -2.4255 C.3     1  UNL1       -0.0524
     30 C          10.5317    5.0128   -3.3081 C.3     1  UNL1       -0.0039
     31 C           9.1982    4.7710   -3.9980 C.3     1  UNL1       -0.0524
     32 H           7.8326    8.4245    5.2673 H       1  UNL1        0.0625
     33 H          11.6829    7.8390    3.5762 H       1  UNL1        0.0625
     34 H          11.3474    4.5739   -3.9006 H       1  UNL1        0.0424
     35 H          10.6883    6.0930   -3.2763 H       1  UNL1        0.0424
     36 H           9.7270    2.6994   -2.4415 H       1  UNL1        0.0424
     37 H          10.4356    2.7207   -0.8431 H       1  UNL1        0.0424
     38 H          11.7205    6.1859   -1.3948 H       1  UNL1        0.0439
     39 H          12.7002    4.7780   -1.8282 H       1  UNL1        0.0439
     40 H          12.0729    3.6695    0.2976 H       1  UNL1        0.0439
     41 H          12.8991    5.2201    0.5192 H       1  UNL1        0.0439
     42 H          10.6203    3.3253    1.9490 H       1  UNL1        0.0439
     43 H           9.8485    4.6859    2.7699 H       1  UNL1        0.0439
     44 H          12.8774    4.3812    2.6190 H       1  UNL1        0.0439
     45 H          11.9496    5.4365    3.7026 H       1  UNL1        0.0439
     46 H          10.7243    7.2016    0.4282 H       1  UNL1        0.0477
     47 H          11.9956    6.8496    1.6255 H       1  UNL1        0.0477
     48 H          10.8616    2.3889    5.5907 H       1  UNL1        0.0424
     49 H           9.9117    3.0154    4.2541 H       1  UNL1        0.0424
     50 H          13.2286    4.1555    5.6434 H       1  UNL1        0.0424
     51 H          14.0022    3.4735    4.2071 H       1  UNL1        0.0424
     52 H          14.4263    1.9335    5.9654 H       1  UNL1        0.0242
     53 H          13.1954    1.1800    4.9434 H       1  UNL1        0.0242
     54 H          12.7503    1.8979    6.4959 H       1  UNL1        0.0242
     55 H           9.4868    4.2442    6.3716 H       1  UNL1        0.0242
     56 H          10.1249    5.3306    5.1420 H       1  UNL1        0.0242
     57 H          11.1736    4.7472    6.4437 H       1  UNL1        0.0242
     58 H          12.2964    9.3209    6.7616 H       1  UNL1        0.0238
     59 H          12.3555    9.3983    5.0055 H       1  UNL1        0.0238
     60 H          12.3047    7.8282    5.8268 H       1  UNL1        0.0238
     61 H          10.3321    8.6687    7.9762 H       1  UNL1        0.0238
     62 H          10.1871    7.1438    7.0960 H       1  UNL1        0.0238
     63 H           8.8201    8.2499    7.1792 H       1  UNL1        0.0238
     64 H           8.8703   10.4241    5.8498 H       1  UNL1        0.0238
     65 H          10.3028   10.8495    4.9181 H       1  UNL1        0.0238
     66 H          10.3582   10.8738    6.6846 H       1  UNL1        0.0238
     67 H           4.5198    7.8241    4.3595 H       1  UNL1        0.0238
     68 H           5.8174    8.9781    4.6312 H       1  UNL1        0.0238
     69 H           5.8599    7.3851    5.4123 H       1  UNL1        0.0238
     70 H           6.2534    5.2895    3.9865 H       1  UNL1        0.0238
     71 H           6.2879    5.4420    2.2234 H       1  UNL1        0.0238
     72 H           4.8050    5.8039    3.1139 H       1  UNL1        0.0238
     73 H           4.7851    8.0711    1.9371 H       1  UNL1        0.0238
     74 H           6.3264    7.7159    1.1497 H       1  UNL1        0.0238
     75 H           6.1534    9.1738    2.1399 H       1  UNL1        0.0238
     76 H          12.7267    2.5332   -1.8276 H       1  UNL1        0.0242
     77 H          12.0458    2.6070   -3.4563 H       1  UNL1        0.0242
     78 H          11.6621    1.2587   -2.4004 H       1  UNL1        0.0242
     79 H           9.0149    3.7166   -4.1868 H       1  UNL1        0.0242
     80 H           9.2009    5.2879   -4.9550 H       1  UNL1        0.0242
     81 H           8.3940    5.1825   -3.3857 H       1  UNL1        0.0242
@<TRIPOS>BOND
     1    80    31    1
     2    79    31    1
     3    31    81    1
     4    31    30    1
     5    34    30    1
     6    77    29    1
     7    30    35    1
     8    30     4    1
     9    36    28    1
    10    29    78    1
    11    29    28    1
    12    29    76    1
    13     4    28    1
    14     4    27    1
    15    28    37    1
    16    39    27    1
    17    38    27    1
    18    27    26    1
    19    26    40    1
    20    26    41    1
    21    26     2    1
    22    46    19    1
    23     2    19    1
    24     2    20    1
    25    74    14    1
    26     1     5    1
    27    19    47    1
    28    19     6    1
    29    73    14    1
    30    42    20    1
    31    14    75    1
    32    14    11    1
    33    71    12    1
    34    20    43    1
    35    20    21    1
    36     5     6   ar
    37     5    10   ar
    38     6     7   ar
    39    44    21    1
    40    72    12    1
    41    12    11    1
    42    12    70    1
    43    21    45    1
    44    21     3    1
    45    11    10    1
    46    11    13    1
    47    10     9   ar
    48     7    33    1
    49     7     8   ar
    50     3    24    1
    51     3    22    1
    52    51    24    1
    53    49    22    1
    54    67    13    1
    55     9     8   ar
    56     9    32    1
    57    13    68    1
    58    13    69    1
    59     8    15    1
    60    24    25    1
    61    24    50    1
    62    65    16    1
    63    22    48    1
    64    22    23    1
    65    53    25    1
    66    59    18    1
    67    56    23    1
    68    25    52    1
    69    25    54    1
    70    23    55    1
    71    23    57    1
    72    16    15    1
    73    16    64    1
    74    16    66    1
    75    15    18    1
    76    15    17    1
    77    60    18    1
    78    18    58    1
    79    62    17    1
    80    17    63    1
    81    17    61    1
