@<TRIPOS>MOLECULE
1,2,50
 58 60 0 0 0
SMALL
GASTEIGER

@<TRIPOS>ATOM
      1 N          10.5330   18.2933   13.9983 N.pl3   1  UNL1       -0.2398
      2 N           7.8912   18.0479   13.3825 N.pl3   1  UNL1       -0.2110
      3 C          10.1323   19.2190   14.7929 C.3     1  UNL1        0.0936
      4 H          10.8364   19.9811   15.1537 H       1  UNL1        0.0591
      5 C          12.0462   18.3795   12.1457 C.ar    1  UNL1       -0.0220
      6 C          12.9486   18.0622   14.3912 C.ar    1  UNL1       -0.0220
      7 C           7.6736   18.8860   14.4399 C.ar    1  UNL1        0.0589
      8 C           7.3145   17.2767   11.1764 C.ar    1  UNL1        0.1429
      9 C          10.8362   18.5680   11.2594 C.3     1  UNL1       -0.0197
     10 H          10.0090   18.0125   11.7193 H       1  UNL1        0.0344
     11 C          14.2227   18.0213   13.8387 C.ar    1  UNL1       -0.0565
     12 H          15.0756   17.8660   14.4822 H       1  UNL1        0.0621
     13 C           7.2520   18.2667   12.1932 C.ar    1  UNL1        0.0952
     14 C          11.8568   18.2630   13.5352 C.ar    1  UNL1        0.0554
     15 C          14.4211   18.1822   12.4825 C.ar    1  UNL1       -0.0611
     16 H          15.4216   18.1642   12.0761 H       1  UNL1        0.0618
     17 C           6.6480   19.4870   11.8489 C.ar    1  UNL1       -0.0351
     18 H           6.6590   20.2902   12.5704 H       1  UNL1        0.0638
     19 C          12.7723   17.8186   15.8736 C.3     1  UNL1       -0.0197
     20 H          11.7095   17.8827   16.1242 H       1  UNL1        0.0344
     21 C          13.3351   18.3528   11.6417 C.ar    1  UNL1       -0.0565
     22 H          13.5021   18.4633   10.5820 H       1  UNL1        0.0621
     23 C           8.7675   19.4015   15.1995 C.ar    1  UNL1       -0.0003
     24 C           6.3750   19.2778   14.8313 C.ar    1  UNL1       -0.0384
     25 H           5.5348   18.9053   14.2594 H       1  UNL1        0.0637
     26 C           6.1551   20.0699   15.9296 C.ar    1  UNL1       -0.0599
     27 H           5.1438   20.3210   16.2163 H       1  UNL1        0.0618
     28 C           6.0793   19.6957   10.6095 C.ar    1  UNL1       -0.0597
     29 H           5.6226   20.6490   10.3867 H       1  UNL1        0.0618
     30 C           6.7387   17.4954    9.9412 C.ar    1  UNL1       -0.0180
     31 H           6.7755   16.7404    9.1716 H       1  UNL1        0.0655
     32 C          13.5189   18.8661   16.7028 C.3     1  UNL1       -0.0586
     33 H          13.3226   18.7140   17.7621 H       1  UNL1        0.0235
     34 H          13.1968   19.8700   16.4326 H       1  UNL1        0.0235
     35 H          14.5920   18.8001   16.5417 H       1  UNL1        0.0235
     36 C          13.2362   16.4040   16.2334 C.3     1  UNL1       -0.0586
     37 H          14.2961   16.2747   16.0279 H       1  UNL1        0.0235
     38 H          12.6771   15.6706   15.6537 H       1  UNL1        0.0235
     39 H          13.0641   16.2135   17.2907 H       1  UNL1        0.0235
     40 C          11.0287   18.0362    9.8405 C.3     1  UNL1       -0.0586
     41 H          11.7177   18.6572    9.2724 H       1  UNL1        0.0235
     42 H          10.0721   18.0426    9.3209 H       1  UNL1        0.0235
     43 H          11.4097   17.0171    9.8607 H       1  UNL1        0.0235
     44 C           6.1029   18.6974    9.6550 C.ar    1  UNL1       -0.0582
     45 H           5.6545   18.8468    8.6851 H       1  UNL1        0.0619
     46 C          10.4387   20.0469   11.2198 C.3     1  UNL1       -0.0586
     47 H          10.2252   20.4115   12.2218 H       1  UNL1        0.0235
     48 H           9.5445   20.1777   10.6138 H       1  UNL1        0.0235
     49 H          11.2429   20.6458   10.7956 H       1  UNL1        0.0235
     50 O           8.0084   16.1107   11.5063 O.3     1  UNL1       -0.4932
     51 C           8.5079   20.2283   16.3021 C.ar    1  UNL1       -0.0548
     52 H           9.3477   20.6082   16.8685 H       1  UNL1        0.0621
     53 C           8.1832   15.1652   10.4713 C.3     1  UNL1        0.0789
     54 H           7.2225   14.7617   10.1302 H       1  UNL1        0.0660
     55 H           8.7837   14.3605   10.8930 H       1  UNL1        0.0660
     56 H           8.7121   15.6035    9.6184 H       1  UNL1        0.0660
     57 C           7.2278   20.5499   16.6809 C.ar    1  UNL1       -0.0613
     58 H           7.0502   21.1738   17.5436 H       1  UNL1        0.0618
@<TRIPOS>BOND
     1    45    44    1
     2    31    30    1
     3    41    40    1
     4    42    40    1
     5    56    53    1
     6    44    30   ar
     7    44    28   ar
     8    40    43    1
     9    40     9    1
    10    30     8   ar
    11    54    53    1
    12    29    28    1
    13    53    55    1
    14    53    50    1
    15    22    21    1
    16    28    17   ar
    17    48    46    1
    18    49    46    1
    19     8    50    1
    20     8    13   ar
    21    46     9    1
    22    46    47    1
    23     9    10    1
    24     9     5    1
    25    21     5   ar
    26    21    15   ar
    27    17    13   ar
    28    17    18    1
    29    16    15    1
    30     5    14   ar
    31    13     2    1
    32    15    11   ar
    33     2     7    1
    34    14     1    1
    35    14     6   ar
    36    11     6   ar
    37    11    12    1
    38     1     3    1
    39    25    24    1
    40     6    19    1
    41     7    24   ar
    42     7    23   ar
    43     3     4    1
    44     3    23    1
    45    24    26   ar
    46    23    51   ar
    47    38    36    1
    48    19    20    1
    49    19    36    1
    50    19    32    1
    51    26    27    1
    52    26    57   ar
    53    37    36    1
    54    36    39    1
    55    51    57   ar
    56    51    52    1
    57    34    32    1
    58    35    32    1
    59    57    58    1
    60    32    33    1
