@<TRIPOS>MOLECULE
1,28,38
 55 56 0 0 0
SMALL
GASTEIGER

@<TRIPOS>ATOM
      1 N           6.1711    9.8257    5.6863 N.3     1  UNL1        0.0000
      2 C           7.4402    9.2398    6.0554 C.3     1  UNL1        0.0000
      3 H           8.1507    9.4178    5.2233 H       1  UNL1        0.0000
      4 C           8.0454    9.8569    7.3257 C.3     1  UNL1        0.0000
      5 H           8.1196   10.9399    7.2039 H       1  UNL1        0.0000
      6 H           7.3676    9.6578    8.1580 H       1  UNL1        0.0000
      7 C           9.4218    9.2654    7.6165 C.3     1  UNL1        0.0000
      8 H          10.0990    9.5061    6.7934 H       1  UNL1        0.0000
      9 H           9.8318    9.7095    8.5264 H       1  UNL1        0.0000
     10 C           9.3360    7.7499    7.7732 C.3     1  UNL1        0.0000
     11 H           8.7198    7.5118    8.6430 H       1  UNL1        0.0000
     12 H          10.3323    7.3373    7.9455 H       1  UNL1        0.0000
     13 C           8.7164    7.1164    6.5306 C.3     1  UNL1        0.0000
     14 H           8.6312    6.0361    6.6678 H       1  UNL1        0.0000
     15 H           9.3664    7.2944    5.6702 H       1  UNL1        0.0000
     16 C           7.3409    7.7194    6.2644 C.3     1  UNL1        0.0000
     17 H           6.6848    7.5331    7.1149 H       1  UNL1        0.0000
     18 H           6.8800    7.2650    5.3830 H       1  UNL1        0.0000
     19 SI          4.7561    9.8959    6.6334 Si      1  UNL1        0.0000
     20 C           4.6883   11.2585    7.9853 C.3     1  UNL1        0.0000
     21 H           5.3720   11.0396    8.7992 H       1  UNL1        0.0000
     22 H           3.6939   11.3348    8.4123 H       1  UNL1        0.0000
     23 H           4.9521   12.2324    7.5863 H       1  UNL1        0.0000
     24 C           4.0462    8.3079    7.4490 C.3     1  UNL1        0.0000
     25 H           4.6269    8.0220    8.3199 H       1  UNL1        0.0000
     26 H           4.0435    7.4692    6.7591 H       1  UNL1        0.0000
     27 H           3.0235    8.4643    7.7771 H       1  UNL1        0.0000
     28 O           3.6775   10.2119    5.4020 O.3     1  UNL1        0.0000
     29 SI          2.8480   11.4619    4.6659 Si      1  UNL1        0.0000
     30 C           2.5941   12.9592    5.8362 C.3     1  UNL1        0.0000
     31 H           1.8356   13.6278    5.4422 H       1  UNL1        0.0000
     32 H           3.5086   13.5343    5.9439 H       1  UNL1        0.0000
     33 H           2.2713   12.6472    6.8234 H       1  UNL1        0.0000
     34 C           1.1068   10.7015    4.3690 C.3     1  UNL1        0.0000
     35 H           0.4533   11.4090    3.8688 H       1  UNL1        0.0000
     36 H           0.6326   10.4288    5.3066 H       1  UNL1        0.0000
     37 H           1.1607    9.8056    3.7568 H       1  UNL1        0.0000
     38 N           3.9142   11.6963    3.3597 N.3     1  UNL1        0.0000
     39 C           3.6276   12.3833    2.1239 C.3     1  UNL1        0.0000
     40 H           4.5866   12.5176    1.5839 H       1  UNL1        0.0000
     41 C           2.6815   11.5743    1.2188 C.3     1  UNL1        0.0000
     42 H           3.0809   10.5648    1.0860 H       1  UNL1        0.0000
     43 H           1.7183   11.4863    1.7235 H       1  UNL1        0.0000
     44 C           2.5003   12.2681   -0.1278 C.3     1  UNL1        0.0000
     45 H           3.4675   12.3422   -0.6314 H       1  UNL1        0.0000
     46 H           1.8346   11.6818   -0.7656 H       1  UNL1        0.0000
     47 C           1.9247   13.6675    0.0722 C.3     1  UNL1        0.0000
     48 H           1.8293   14.1725   -0.8916 H       1  UNL1        0.0000
     49 H           0.9261   13.5858    0.5073 H       1  UNL1        0.0000
     50 C           2.8136   14.4862    1.0048 C.3     1  UNL1        0.0000
     51 H           2.3675   15.4689    1.1723 H       1  UNL1        0.0000
     52 H           3.7894   14.6373    0.5377 H       1  UNL1        0.0000
     53 C           3.0016   13.7672    2.3369 C.3     1  UNL1        0.0000
     54 H           3.6416   14.3475    3.0022 H       1  UNL1        0.0000
     55 H           2.0371   13.6322    2.8303 H       1  UNL1        0.0000
@<TRIPOS>BOND
     1    48    47    1
     2    46    44    1
     3    45    44    1
     4    44    47    1
     5    44    41    1
     6    47    49    1
     7    47    50    1
     8    52    50    1
     9    50    51    1
    10    50    53    1
    11    42    41    1
    12    41    43    1
    13    41    39    1
    14    40    39    1
    15    39    53    1
    16    39    38    1
    17    53    55    1
    18    53    54    1
    19    38    29    1
    20    37    34    1
    21    35    34    1
    22    34    29    1
    23    34    36    1
    24    29    28    1
    25    29    30    1
    26     3     2    1
    27    18    16    1
    28    28    19    1
    29    31    30    1
    30    15    13    1
    31     1     2    1
    32     1    19    1
    33    30    32    1
    34    30    33    1
    35     2    16    1
    36     2     4    1
    37    16    13    1
    38    16    17    1
    39    13    14    1
    40    13    10    1
    41    19    24    1
    42    19    20    1
    43    26    24    1
    44     8     7    1
    45     5     4    1
    46     4     7    1
    47     4     6    1
    48    24    27    1
    49    24    25    1
    50    23    20    1
    51     7    10    1
    52     7     9    1
    53    10    12    1
    54    10    11    1
    55    20    22    1
    56    20    21    1
