@<TRIPOS>MOLECULE
25,62,76
 91 94 0 0 0
SMALL
GASTEIGER

@<TRIPOS>ATOM
      1 C          11.2254   12.4580    6.0520 C.3     1  UNL1        0.0000
      2 P          12.3596   13.0584    4.8269 P.3     1  UNL1        0.0000
      3 C          11.8220   14.7784    4.4992 C.ar    1  UNL1        0.0000
      4 C          12.1578   15.4623    3.3400 C.ar    1  UNL1        0.0000
      5 H          12.7191   14.9630    2.5695 H       1  UNL1        0.0000
      6 C          11.7620   16.7760    3.1596 C.ar    1  UNL1        0.0000
      7 H          12.0279   17.2951    2.2499 H       1  UNL1        0.0000
      8 C          11.0284   17.4236    4.1383 C.ar    1  UNL1        0.0000
      9 H          10.7179   18.4482    3.9954 H       1  UNL1        0.0000
     10 C          10.6930   16.7496    5.3006 C.ar    1  UNL1        0.0000
     11 H          10.1182   17.2476    6.0680 H       1  UNL1        0.0000
     12 C          11.0906   15.4388    5.4830 C.ar    1  UNL1        0.0000
     13 H          10.8171   14.9019    6.3802 H       1  UNL1        0.0000
     14 C          13.8960   13.3291    5.7717 C.ar    1  UNL1        0.0000
     15 C          14.9875   12.5113    5.5145 C.ar    1  UNL1        0.0000
     16 H          14.8978   11.7533    4.7445 H       1  UNL1        0.0000
     17 C          16.1556   12.6613    6.2395 C.ar    1  UNL1        0.0000
     18 H          17.0036   12.0212    6.0420 H       1  UNL1        0.0000
     19 C          16.2366   13.6306    7.2258 C.ar    1  UNL1        0.0000
     20 H          17.1482   13.7489    7.7933 H       1  UNL1        0.0000
     21 C          15.1453   14.4419    7.4908 C.ar    1  UNL1        0.0000
     22 H          15.2059   15.1922    8.2662 H       1  UNL1        0.0000
     23 C          13.9742   14.2924    6.7695 C.ar    1  UNL1        0.0000
     24 H          13.1212   14.9200    6.9786 H       1  UNL1        0.0000
     25 N          12.6304   12.1556    3.5136 N.3     1  UNL1        0.0000
     26 SI         13.6764   12.5055    2.1677 Si      1  UNL1        0.0000
     27 C          12.6461   13.0454    0.6379 C.3     1  UNL1        0.0000
     28 H          12.1931   12.1822    0.1610 H       1  UNL1        0.0000
     29 H          13.2888   13.5204   -0.0971 H       1  UNL1        0.0000
     30 H          11.8476   13.7405    0.8782 H       1  UNL1        0.0000
     31 C          14.5480   10.8757    1.6822 C.3     1  UNL1        0.0000
     32 H          13.8195   10.1378    1.3590 H       1  UNL1        0.0000
     33 H          15.1034   10.4465    2.5134 H       1  UNL1        0.0000
     34 H          15.2417   11.0371    0.8624 H       1  UNL1        0.0000
     35 C          15.0567   13.8009    2.5061 C.3     1  UNL1        0.0000
     36 H          16.0171   13.3208    2.6699 H       1  UNL1        0.0000
     37 H          14.8425   14.4008    3.3865 H       1  UNL1        0.0000
     38 H          15.1749   14.4771    1.6650 H       1  UNL1        0.0000
     39 P           9.7938   11.8041    5.2613 P.3     1  UNL1        0.0000
     40 C           9.0444   13.2512    4.4568 C.ar    1  UNL1        0.0000
     41 C           8.1208   14.0640    5.0995 C.ar    1  UNL1        0.0000
     42 H           7.7897   13.8122    6.0973 H       1  UNL1        0.0000
     43 C           7.6306   15.1872    4.4578 C.ar    1  UNL1        0.0000
     44 H           6.9086   15.8188    4.9548 H       1  UNL1        0.0000
     45 C           8.0631   15.5041    3.1805 C.ar    1  UNL1        0.0000
     46 H           7.6782   16.3825    2.6835 H       1  UNL1        0.0000
     47 C           8.9895   14.6969    2.5410 C.ar    1  UNL1        0.0000
     48 H           9.3296   14.9503    1.5469 H       1  UNL1        0.0000
     49 C           9.4820   13.5740    3.1792 C.ar    1  UNL1        0.0000
     50 H          10.2112   12.9317    2.7038 H       1  UNL1        0.0000
     51 C           8.6578   11.3782    6.6219 C.ar    1  UNL1        0.0000
     52 C           7.6123   10.4887    6.4019 C.ar    1  UNL1        0.0000
     53 H           7.4865   10.0578    5.4189 H       1  UNL1        0.0000
     54 C           6.7507   10.1575    7.4321 C.ar    1  UNL1        0.0000
     55 H           5.9355    9.4702    7.2552 H       1  UNL1        0.0000
     56 C           6.9342   10.7070    8.6910 C.ar    1  UNL1        0.0000
     57 H           6.2631   10.4457    9.4964 H       1  UNL1        0.0000
     58 C           7.9808   11.5866    8.9160 C.ar    1  UNL1        0.0000
     59 H           8.1282   12.0093    9.8992 H       1  UNL1        0.0000
     60 C           8.8406   11.9290    7.8868 C.ar    1  UNL1        0.0000
     61 H           9.6776   12.5888    8.0581 H       1  UNL1        0.0000
     62 N           9.9647   10.5633    4.2449 N.3     1  UNL1        0.0000
     63 SI          8.9429   10.1758    2.8876 Si      1  UNL1        0.0000
     64 C           8.6029    8.2920    2.9211 C.3     1  UNL1        0.0000
     65 H           8.1364    7.9423    3.8376 H       1  UNL1        0.0000
     66 H           9.5386    7.7600    2.7819 H       1  UNL1        0.0000
     67 H           7.9502    8.0211    2.0979 H       1  UNL1        0.0000
     68 C           9.8411   10.5208    1.2338 C.3     1  UNL1        0.0000
     69 H           9.7223   11.5418    0.8835 H       1  UNL1        0.0000
     70 H           9.4588    9.8613    0.4612 H       1  UNL1        0.0000
     71 H          10.9017   10.3139    1.3474 H       1  UNL1        0.0000
     72 C           7.2609   11.1001    2.8593 C.3     1  UNL1        0.0000
     73 H           7.2388   11.8408    2.0666 H       1  UNL1        0.0000
     74 H           7.0633   11.6238    3.7892 H       1  UNL1        0.0000
     75 H           6.4415   10.4108    2.6831 H       1  UNL1        0.0000
     76 O          12.7190   10.5699    6.2724 O.2     1  UNL1        0.0000
     77 C          11.9742   11.4491    6.8999 C.2     1  UNL1        0.0000
     78 N          11.8598   11.6261    8.1564 N.2     1  UNL1        0.0000
     79 C          12.6074   10.8705    9.1456 C.3     1  UNL1        0.0000
     80 C          14.1095   11.1441    8.9985 C.3     1  UNL1        0.0000
     81 H          14.4472   10.8191    8.0177 H       1  UNL1        0.0000
     82 H          14.6713   10.6137    9.7652 H       1  UNL1        0.0000
     83 H          14.3022   12.2108    9.0887 H       1  UNL1        0.0000
     84 C          12.3499    9.3613    9.0513 C.3     1  UNL1        0.0000
     85 H          12.6071    9.0062    8.0549 H       1  UNL1        0.0000
     86 H          11.2977    9.1593    9.2477 H       1  UNL1        0.0000
     87 H          12.9532    8.8307    9.7863 H       1  UNL1        0.0000
     88 C          12.1242   11.3826   10.5082 C.3     1  UNL1        0.0000
     89 H          12.2991   12.4524   10.5785 H       1  UNL1        0.0000
     90 H          12.6523   10.8794   11.3151 H       1  UNL1        0.0000
     91 H          11.0571   11.2028   10.6116 H       1  UNL1        0.0000
@<TRIPOS>BOND
     1    29    27    1
     2    28    27    1
     3    70    68    1
     4    27    30    1
     5    27    26    1
     6    34    31    1
     7    69    68    1
     8    68    71    1
     9    68    63    1
    10    32    31    1
    11    48    47    1
    12    38    35    1
    13    31    26    1
    14    31    33    1
    15    73    72    1
    16    67    64    1
    17    26    35    1
    18    26    25    1
    19     7     6    1
    20    35    36    1
    21    35    37    1
    22    47    49   ar
    23    47    45   ar
    24     5     4    1
    25    75    72    1
    26    46    45    1
    27    50    49    1
    28    66    64    1
    29    72    63    1
    30    72    74    1
    31    63    64    1
    32    63    62    1
    33    64    65    1
    34     6     4   ar
    35     6     8   ar
    36    49    40   ar
    37    45    43   ar
    38     4     3   ar
    39    25     2    1
    40     9     8    1
    41     8    10   ar
    42    62    39    1
    43    40    41   ar
    44    40    39    1
    45    43    44    1
    46    43    41   ar
    47     3     2    1
    48     3    12   ar
    49    16    15    1
    50     2    14    1
    51     2     1    1
    52    41    42    1
    53    39     1    1
    54    39    51    1
    55    10    12   ar
    56    10    11    1
    57    53    52    1
    58    12    13    1
    59    15    14   ar
    60    15    17   ar
    61    14    23   ar
    62    18    17    1
    63     1    77    1
    64    17    19   ar
    65    76    77    1
    66    52    51   ar
    67    52    54   ar
    68    51    60   ar
    69    23    24    1
    70    23    21   ar
    71    77    78    2
    72    19    21   ar
    73    19    20    1
    74    55    54    1
    75    54    56   ar
    76    21    22    1
    77    60    61    1
    78    60    58   ar
    79    81    80    1
    80    85    84    1
    81    78    79    1
    82    56    58   ar
    83    56    57    1
    84    58    59    1
    85    80    83    1
    86    80    79    1
    87    80    82    1
    88    84    79    1
    89    84    86    1
    90    84    87    1
    91    79    88    1
    92    88    89    1
    93    88    91    1
    94    88    90    1
