@<TRIPOS>MOLECULE
1,3,5
 54 57 0 0 0
SMALL
GASTEIGER

@<TRIPOS>ATOM
      1 N           2.1662    4.1836    5.9224 N.pl3   1  UNL1       -0.1689
      2 N           1.8328    3.2351    6.8164 N.3     1  UNL1       -0.1743
      3 N           1.8073    1.8795    4.0196 N.pl3   1  UNL1       -0.1689
      4 N           1.1743    1.6742    5.1857 N.3     1  UNL1       -0.1743
      5 O           4.1089    2.2346    5.7147 O.3     1  UNL1       -0.2142
      6 C           1.1157    2.9683    9.2062 C.3     1  UNL1       -0.0392
      7 H           0.2245    2.3735    9.0005 H       1  UNL1        0.0252
      8 H           0.8950    3.6423   10.0293 H       1  UNL1        0.0252
      9 H           1.9150    2.2951    9.5126 H       1  UNL1        0.0252
     10 C           1.5205    3.7663    8.0206 C.3     1  UNL1        0.0831
     11 C           1.6436    5.1322    7.8822 C.2     1  UNL1       -0.0406
     12 H           1.4726    5.8743    8.6350 H       1  UNL1        0.0608
     13 C           2.0472    5.3464    6.5568 C.2     1  UNL1        0.0395
     14 C           2.2878    6.6578    5.8985 C.3     1  UNL1       -0.0237
     15 H           3.2044    7.1011    6.2840 H       1  UNL1        0.0291
     16 H           1.4630    7.3392    6.1058 H       1  UNL1        0.0291
     17 H           2.3949    6.5199    4.8267 H       1  UNL1        0.0291
     18 C          -1.0411    0.9339    6.0952 C.3     1  UNL1       -0.0392
     19 H          -0.7091    0.1086    6.7263 H       1  UNL1        0.0252
     20 H          -2.0057    0.6672    5.6720 H       1  UNL1        0.0252
     21 H          -1.1682    1.8162    6.7229 H       1  UNL1        0.0252
     22 C          -0.0806    1.2030    4.9932 C.3     1  UNL1        0.0831
     23 C          -0.2463    1.0820    3.6315 C.2     1  UNL1       -0.0406
     24 H          -1.1171    0.7314    3.1157 H       1  UNL1        0.0608
     25 C           0.9648    1.5100    3.0647 C.2     1  UNL1        0.0395
     26 C           1.3342    1.5408    1.6265 C.3     1  UNL1       -0.0237
     27 H           2.1689    2.2228    1.4782 H       1  UNL1        0.0291
     28 H           0.4840    1.8375    1.0148 H       1  UNL1        0.0291
     29 H           1.6468    0.5458    1.3090 H       1  UNL1        0.0291
     30 C           3.7978    1.1640    7.8358 C.ar    1  UNL1       -0.0054
     31 C           3.3361    0.1304    8.6420 C.ar    1  UNL1       -0.0553
     32 H           2.6709   -0.6210    8.2416 H       1  UNL1        0.0621
     33 C           3.7403    0.0433    9.9631 C.ar    1  UNL1       -0.0614
     34 H           3.3783   -0.7659   10.5814 H       1  UNL1        0.0618
     35 C           4.6059    0.9862   10.4930 C.ar    1  UNL1       -0.0617
     36 H           4.9160    0.9148   11.5254 H       1  UNL1        0.0618
     37 C           5.0767    2.0105    9.6898 C.ar    1  UNL1       -0.0614
     38 H           5.7588    2.7455   10.0909 H       1  UNL1        0.0618
     39 C           4.6764    2.0959    8.3686 C.ar    1  UNL1       -0.0553
     40 H           5.0406    2.8770    7.7199 H       1  UNL1        0.0621
     41 C           3.3976   -0.0471    5.6927 C.ar    1  UNL1       -0.0054
     42 C           2.3623   -0.9737    5.7077 C.ar    1  UNL1       -0.0553
     43 H           1.4349   -0.7715    6.2237 H       1  UNL1        0.0621
     44 C           2.4940   -2.1874    5.0534 C.ar    1  UNL1       -0.0614
     45 H           1.6740   -2.8918    5.0694 H       1  UNL1        0.0618
     46 C           3.6627   -2.4987    4.3827 C.ar    1  UNL1       -0.0617
     47 H           3.7582   -3.4449    3.8704 H       1  UNL1        0.0618
     48 C           4.7076   -1.5904    4.3794 C.ar    1  UNL1       -0.0614
     49 H           5.6285   -1.8245    3.8663 H       1  UNL1        0.0618
     50 C           4.5739   -0.3791    5.0307 C.ar    1  UNL1       -0.0553
     51 H           5.3798    0.3394    5.0355 H       1  UNL1        0.0621
     52 C           3.3567    1.3275    6.3704 C.3     1  UNL1        0.1858
     53 C           1.8407    1.8441    6.4483 C.3     1  UNL1        0.1415
     54 H           1.2923    1.2917    7.2159 H       1  UNL1        0.0701
@<TRIPOS>BOND
     1    28    26    1
     2    29    26    1
     3    27    26    1
     4    26    25    1
     5    25    23    2
     6    25     3    1
     7    24    23    1
     8    23    22    1
     9    49    48    1
    10    47    46    1
    11     3     4    1
    12    48    46   ar
    13    48    50   ar
    14    46    44   ar
    15    17    14    1
    16    22     4    1
    17    22    18    1
    18    50    51    1
    19    50    41   ar
    20    44    45    1
    21    44    42   ar
    22     4    53    1
    23    20    18    1
    24    41    42   ar
    25    41    52    1
    26    42    43    1
    27     5    52    1
    28    14    16    1
    29    14    15    1
    30    14    13    1
    31     1    13    1
    32     1     2    1
    33    18    21    1
    34    18    19    1
    35    52    53    1
    36    52    30    1
    37    53     2    1
    38    53    54    1
    39    13    11    2
    40     2    10    1
    41    40    39    1
    42    30    39   ar
    43    30    31   ar
    44    11    10    1
    45    11    12    1
    46    10     6    1
    47    32    31    1
    48    39    37   ar
    49    31    33   ar
    50     7     6    1
    51     6     9    1
    52     6     8    1
    53    37    38    1
    54    37    35   ar
    55    33    35   ar
    56    33    34    1
    57    35    36    1
