@<TRIPOS>MOLECULE
1,4,5
 41 40 0 0 0
SMALL
GASTEIGER

@<TRIPOS>ATOM
      1 O          13.6328    7.5236    3.9322 O.3     1  UNL1        0.0000
      2 SI         10.1808    4.9107    4.2600 Si      1  UNL1        0.0000
      3 SI         15.3066    7.0540    7.7274 Si      1  UNL1        0.0000
      4 N          11.6501    5.7916    4.1407 N.3     1  UNL1        0.0000
      5 N          14.8670    6.9218    6.0679 N.3     1  UNL1        0.0000
      6 C          11.5360    6.8951    3.2178 C.3     1  UNL1        0.0000
      7 C          12.9201    7.3225    2.7387 C.3     1  UNL1        0.0000
      8 C          15.5084    7.9194    5.2370 C.3     1  UNL1        0.0000
      9 C          14.9918    7.8564    3.7936 C.3     1  UNL1        0.0000
     10 C           8.6823    6.0951    4.5371 C.3     1  UNL1        0.0000
     11 C           9.8021    4.0051    2.5945 C.3     1  UNL1        0.0000
     12 C          10.1231    3.5918    5.6223 C.3     1  UNL1        0.0000
     13 C          15.3908    8.9094    8.2671 C.3     1  UNL1        0.0000
     14 C          17.0741    6.3748    8.0747 C.3     1  UNL1        0.0000
     15 C          14.0644    6.2667    8.9362 C.3     1  UNL1        0.0000
     16 H          11.0646    7.7744    3.7023 H       1  UNL1        0.0000
     17 H          10.9213    6.6539    2.3380 H       1  UNL1        0.0000
     18 H          12.8791    8.2521    2.1458 H       1  UNL1        0.0000
     19 H          13.3855    6.5317    2.1255 H       1  UNL1        0.0000
     20 H          16.6059    7.8076    5.2283 H       1  UNL1        0.0000
     21 H          15.3039    8.9355    5.6155 H       1  UNL1        0.0000
     22 H          15.1016    8.8308    3.2876 H       1  UNL1        0.0000
     23 H          15.5207    7.0996    3.1917 H       1  UNL1        0.0000
     24 H           7.7696    5.5442    4.7388 H       1  UNL1        0.0000
     25 H           8.8530    6.7644    5.3774 H       1  UNL1        0.0000
     26 H           8.5013    6.7108    3.6607 H       1  UNL1        0.0000
     27 H           8.7526    3.7368    2.5329 H       1  UNL1        0.0000
     28 H          10.3742    3.0860    2.4987 H       1  UNL1        0.0000
     29 H          10.0269    4.6210    1.7271 H       1  UNL1        0.0000
     30 H           9.6690    2.6805    5.2503 H       1  UNL1        0.0000
     31 H           9.5303    3.9292    6.4648 H       1  UNL1        0.0000
     32 H          11.1149    3.3487    5.9783 H       1  UNL1        0.0000
     33 H          17.3563    6.5414    9.1096 H       1  UNL1        0.0000
     34 H          17.8219    6.8619    7.4545 H       1  UNL1        0.0000
     35 H          17.1322    5.3094    7.8835 H       1  UNL1        0.0000
     36 H          14.5691    6.0097    9.8615 H       1  UNL1        0.0000
     37 H          13.6226    5.3645    8.5313 H       1  UNL1        0.0000
     38 H          13.2598    6.9512    9.1896 H       1  UNL1        0.0000
     39 H          15.4921    8.9945    9.3439 H       1  UNL1        0.0000
     40 H          16.2404    9.4204    7.8246 H       1  UNL1        0.0000
     41 H          14.4915    9.4521    7.9840 H       1  UNL1        0.0000
@<TRIPOS>BOND
     1    29    11    1
     2    19     7    1
     3    18     7    1
     4    17     6    1
     5    28    11    1
     6    27    11    1
     7    11     2    1
     8     7     6    1
     9     7     1    1
    10    23     9    1
    11     6    16    1
    12     6     4    1
    13    22     9    1
    14    26    10    1
    15     9     1    1
    16     9     8    1
    17     4     2    1
    18     2    10    1
    19     2    12    1
    20    10    24    1
    21    10    25    1
    22    20     8    1
    23     8    21    1
    24     8     5    1
    25    30    12    1
    26    12    32    1
    27    12    31    1
    28     5     3    1
    29    34    14    1
    30     3    14    1
    31     3    13    1
    32     3    15    1
    33    40    13    1
    34    35    14    1
    35    41    13    1
    36    14    33    1
    37    13    39    1
    38    37    15    1
    39    15    38    1
    40    15    36    1
