@<TRIPOS>MOLECULE
1,2,3
 49 50 0 0 0
SMALL
GASTEIGER

@<TRIPOS>ATOM
      1 O          10.7868    8.8479   12.0326 O.3     1  UNL1        0.0000
      2 N           8.3719    9.1712   12.5486 N.pl3   1  UNL1        0.0000
      3 N          11.8456   11.0167   12.9808 N.pl3   1  UNL1        0.0000
      4 SI          6.6982    9.5176   12.3139 Si      1  UNL1        0.0000
      5 SI         12.4361   12.2728   14.0163 Si      1  UNL1        0.0000
      6 C          10.2315    7.7180   12.6018 C.ar    1  UNL1        0.0000
      7 C           8.8560    7.9413   12.8783 C.ar    1  UNL1        0.0000
      8 C           8.1642    6.8942   13.4937 C.ar    1  UNL1        0.0000
      9 C           8.8079    5.7101   13.8107 C.ar    1  UNL1        0.0000
     10 C          10.1499    5.5263   13.5328 C.ar    1  UNL1        0.0000
     11 C          10.8752    6.5456   12.9231 C.ar    1  UNL1        0.0000
     12 C          12.1340    9.0044   11.7436 C.ar    1  UNL1        0.0000
     13 C          12.6570   10.2323   12.2239 C.ar    1  UNL1        0.0000
     14 C          13.9782   10.5208   11.8428 C.ar    1  UNL1        0.0000
     15 C          14.7084    9.6453   11.0641 C.ar    1  UNL1        0.0000
     16 C          14.1632    8.4549   10.6109 C.ar    1  UNL1        0.0000
     17 C          12.8513    8.1435   10.9397 C.ar    1  UNL1        0.0000
     18 C           5.7586    8.0206   11.5543 C.3     1  UNL1        0.0000
     19 C           5.7478   10.0732   13.8832 C.3     1  UNL1        0.0000
     20 C           6.5850   10.9206   11.0102 C.3     1  UNL1        0.0000
     21 C          14.1553   11.8460   14.7764 C.3     1  UNL1        0.0000
     22 C          12.6050   13.9539   13.0984 C.3     1  UNL1        0.0000
     23 C          11.2704   12.4876   15.5104 C.3     1  UNL1        0.0000
     24 H           7.1253    7.0340   13.7443 H       1  UNL1        0.0000
     25 H           8.2503    4.9202   14.2922 H       1  UNL1        0.0000
     26 H          10.6427    4.6020   13.7904 H       1  UNL1        0.0000
     27 H          11.9312    6.4244   12.7300 H       1  UNL1        0.0000
     28 H          14.4146   11.4548   12.1556 H       1  UNL1        0.0000
     29 H          15.7226    9.9018   10.7939 H       1  UNL1        0.0000
     30 H          14.7398    7.7834    9.9947 H       1  UNL1        0.0000
     31 H          12.3868    7.2436   10.5617 H       1  UNL1        0.0000
     32 H           5.0265    8.3498   10.8242 H       1  UNL1        0.0000
     33 H           5.2237    7.4577   12.3113 H       1  UNL1        0.0000
     34 H           6.4350    7.3310   11.0575 H       1  UNL1        0.0000
     35 H           4.6833   10.1457   13.6815 H       1  UNL1        0.0000
     36 H           6.0813   11.0543   14.2057 H       1  UNL1        0.0000
     37 H           5.8784    9.3833   14.7126 H       1  UNL1        0.0000
     38 H           5.7109   11.5328   11.2029 H       1  UNL1        0.0000
     39 H           7.4639   11.5591   11.0673 H       1  UNL1        0.0000
     40 H           6.4948   10.5476    9.9942 H       1  UNL1        0.0000
     41 H          14.9638   12.3780   14.2862 H       1  UNL1        0.0000
     42 H          14.1860   12.1171   15.8266 H       1  UNL1        0.0000
     43 H          14.3757   10.7846   14.7058 H       1  UNL1        0.0000
     44 H          12.9301   14.7313   13.7828 H       1  UNL1        0.0000
     45 H          13.3278   13.9148   12.2872 H       1  UNL1        0.0000
     46 H          11.6523   14.2624   12.6795 H       1  UNL1        0.0000
     47 H          11.4903   13.4218   16.0180 H       1  UNL1        0.0000
     48 H          11.3932   11.6917   16.2406 H       1  UNL1        0.0000
     49 H          10.2263   12.5062   15.2093 H       1  UNL1        0.0000
@<TRIPOS>BOND
     1    40    20    1
     2    30    16    1
     3    31    17    1
     4    16    17   ar
     5    16    15   ar
     6    29    15    1
     7    32    18    1
     8    17    12   ar
     9    20    39    1
    10    20    38    1
    11    20     4    1
    12    34    18    1
    13    15    14   ar
    14    18    33    1
    15    18     4    1
    16    12     1    1
    17    12    13   ar
    18    14    28    1
    19    14    13   ar
    20     1     6    1
    21    13     3    1
    22    45    22    1
    23     4     2    1
    24     4    19    1
    25     2     7    1
    26     6     7   ar
    27     6    11   ar
    28    46    22    1
    29    27    11    1
    30     7     8   ar
    31    11    10   ar
    32     3     5    1
    33    22    44    1
    34    22     5    1
    35     8    24    1
    36     8     9   ar
    37    10    26    1
    38    10     9   ar
    39    35    19    1
    40     9    25    1
    41    19    36    1
    42    19    37    1
    43     5    21    1
    44     5    23    1
    45    41    21    1
    46    43    21    1
    47    21    42    1
    48    49    23    1
    49    23    47    1
    50    23    48    1
