@<TRIPOS>MOLECULE
1,2,3
 41 40 0 0 0
SMALL
GASTEIGER

@<TRIPOS>ATOM
      1 O          17.1854   20.3564   24.4957 O.3     1  UNL1        0.0000
      2 N          14.8046   19.0075   24.4387 N.3     1  UNL1        0.0000
      3 N          17.7058   18.7986   22.3206 N.3     1  UNL1        0.0000
      4 SI         13.1881   18.4008   24.5043 Si      1  UNL1        0.0000
      5 SI         18.4317   18.4000   20.8066 Si      1  UNL1        0.0000
      6 C          16.7140   19.8226   25.7181 C.3     1  UNL1        0.0000
      7 C          15.1927   19.7684   25.6071 C.3     1  UNL1        0.0000
      8 C          18.5376   20.0470   24.2096 C.3     1  UNL1        0.0000
      9 C          18.5836   18.7089   23.4609 C.3     1  UNL1        0.0000
     10 C          11.8420   19.7672   24.4343 C.3     1  UNL1        0.0000
     11 C          12.9298   17.5031   26.1919 C.3     1  UNL1        0.0000
     12 C          12.7659   17.0851   23.1836 C.3     1  UNL1        0.0000
     13 C          20.1837   19.1864   20.6702 C.3     1  UNL1        0.0000
     14 C          18.7620   16.5030   20.6423 C.3     1  UNL1        0.0000
     15 C          17.3929   18.9984   19.3268 C.3     1  UNL1        0.0000
     16 H          17.0252   20.4744   26.5505 H       1  UNL1        0.0000
     17 H          17.1161   18.8114   25.8896 H       1  UNL1        0.0000
     18 H          14.8230   20.8045   25.5518 H       1  UNL1        0.0000
     19 H          14.7985   19.3245   26.5315 H       1  UNL1        0.0000
     20 H          19.1393   20.0357   25.1290 H       1  UNL1        0.0000
     21 H          18.8960   20.8416   23.5454 H       1  UNL1        0.0000
     22 H          19.6240   18.4962   23.1866 H       1  UNL1        0.0000
     23 H          18.2633   17.8965   24.1456 H       1  UNL1        0.0000
     24 H          10.8535   19.3545   24.6130 H       1  UNL1        0.0000
     25 H          12.0186   20.5341   25.1834 H       1  UNL1        0.0000
     26 H          11.8247   20.2488   23.4619 H       1  UNL1        0.0000
     27 H          12.0693   16.8451   26.1429 H       1  UNL1        0.0000
     28 H          12.7460   18.2086   26.9957 H       1  UNL1        0.0000
     29 H          13.7863   16.8962   26.4735 H       1  UNL1        0.0000
     30 H          11.6987   16.8938   23.2190 H       1  UNL1        0.0000
     31 H          13.0021   17.4214   22.1794 H       1  UNL1        0.0000
     32 H          13.2676   16.1381   23.3586 H       1  UNL1        0.0000
     33 H          20.4996   19.2295   19.6330 H       1  UNL1        0.0000
     34 H          20.9262   18.5998   21.2038 H       1  UNL1        0.0000
     35 H          20.2169   20.1968   21.0665 H       1  UNL1        0.0000
     36 H          19.7182   16.3250   20.1607 H       1  UNL1        0.0000
     37 H          18.7921   16.0150   21.6141 H       1  UNL1        0.0000
     38 H          18.0053   16.0021   20.0476 H       1  UNL1        0.0000
     39 H          17.4476   18.2826   18.5129 H       1  UNL1        0.0000
     40 H          17.7591   19.9460   18.9467 H       1  UNL1        0.0000
     41 H          16.3432   19.1337   19.5804 H       1  UNL1        0.0000
@<TRIPOS>BOND
     1    39    15    1
     2    40    15    1
     3    15    41    1
     4    15     5    1
     5    33    13    1
     6    38    14    1
     7    36    14    1
     8    14     5    1
     9    14    37    1
    10    13     5    1
    11    13    35    1
    12    13    34    1
    13     5     3    1
    14    31    12    1
    15     3     9    1
    16    12    30    1
    17    12    32    1
    18    12     4    1
    19    22     9    1
    20     9    23    1
    21     9     8    1
    22    26    10    1
    23    21     8    1
    24     8     1    1
    25     8    20    1
    26    10     4    1
    27    10    24    1
    28    10    25    1
    29     2     4    1
    30     2     7    1
    31     1     6    1
    32     4    11    1
    33    18     7    1
    34     7     6    1
    35     7    19    1
    36     6    17    1
    37     6    16    1
    38    27    11    1
    39    11    29    1
    40    11    28    1
