@<TRIPOS>MOLECULE
1,2,5
 41 40 0 0 0
SMALL
GASTEIGER

@<TRIPOS>ATOM
      1 N          -0.5951   13.1307   12.7657 N.3     1  UNL1        0.0000
      2 N          -2.4939   11.5384   10.9903 N.3     1  UNL1        0.0000
      3 SI         -0.6710   14.6925   12.0825 Si      1  UNL1        0.0000
      4 SI         -3.8887   11.8841   10.0591 Si      1  UNL1        0.0000
      5 O          -0.1190   10.5206   12.2241 O.3     1  UNL1        0.0000
      6 C           0.6954   12.5938   13.1112 C.3     1  UNL1        0.0000
      7 C           1.0113   11.3872   12.2192 C.3     1  UNL1        0.0000
      8 C          -1.3321   11.1667   10.2141 C.3     1  UNL1        0.0000
      9 C          -0.4928   10.0959   10.9233 C.3     1  UNL1        0.0000
     10 C           0.0455   16.0242   13.2831 C.3     1  UNL1        0.0000
     11 C          -2.4916   15.0977   11.7016 C.3     1  UNL1        0.0000
     12 C           0.3731   14.8975   10.4702 C.3     1  UNL1        0.0000
     13 C          -3.4824   12.9492    8.5068 C.3     1  UNL1        0.0000
     14 C          -5.2675   12.7694   11.0396 C.3     1  UNL1        0.0000
     15 C          -4.6736   10.2711    9.3218 C.3     1  UNL1        0.0000
     16 H           0.7228   12.2449   14.1585 H       1  UNL1        0.0000
     17 H           1.5097   13.3245   12.9931 H       1  UNL1        0.0000
     18 H           1.8875   10.8291   12.5876 H       1  UNL1        0.0000
     19 H           1.2174   11.7440   11.2045 H       1  UNL1        0.0000
     20 H          -0.6924   12.0506   10.0396 H       1  UNL1        0.0000
     21 H          -1.5957   10.7618    9.2235 H       1  UNL1        0.0000
     22 H          -1.0770    9.1790   11.0549 H       1  UNL1        0.0000
     23 H           0.4033    9.8488   10.3331 H       1  UNL1        0.0000
     24 H           0.0187   17.0126   12.8362 H       1  UNL1        0.0000
     25 H          -0.5115   16.0722   14.2147 H       1  UNL1        0.0000
     26 H           1.0811   15.8126   13.5349 H       1  UNL1        0.0000
     27 H          -2.6313   15.3484   10.6562 H       1  UNL1        0.0000
     28 H          -2.8538   15.9375   12.2848 H       1  UNL1        0.0000
     29 H          -3.0973   14.2231   11.9299 H       1  UNL1        0.0000
     30 H           0.4060   15.9337   10.1487 H       1  UNL1        0.0000
     31 H           1.4007   14.5746   10.6197 H       1  UNL1        0.0000
     32 H          -0.0384   14.3162    9.6489 H       1  UNL1        0.0000
     33 H          -4.3833   13.2742    7.9961 H       1  UNL1        0.0000
     34 H          -2.9175   13.8364    8.7765 H       1  UNL1        0.0000
     35 H          -2.8887   12.3897    7.7893 H       1  UNL1        0.0000
     36 H          -6.1898   12.1984   11.0269 H       1  UNL1        0.0000
     37 H          -5.4823   13.7418   10.6115 H       1  UNL1        0.0000
     38 H          -4.9729   12.9220   12.0726 H       1  UNL1        0.0000
     39 H          -5.3856   10.5117    8.5386 H       1  UNL1        0.0000
     40 H          -5.2064    9.6929   10.0728 H       1  UNL1        0.0000
     41 H          -3.9206    9.6221    8.8802 H       1  UNL1        0.0000
@<TRIPOS>BOND
     1    35    13    1
     2    33    13    1
     3    13    34    1
     4    13     4    1
     5    39    15    1
     6    41    15    1
     7    21     8    1
     8    15     4    1
     9    15    40    1
    10    32    12    1
    11    20     8    1
    12     4     2    1
    13     4    14    1
    14    30    12    1
    15     8     9    1
    16     8     2    1
    17    23     9    1
    18    12    31    1
    19    12     3    1
    20    37    14    1
    21    27    11    1
    22     9    22    1
    23     9     5    1
    24    36    14    1
    25    14    38    1
    26    19     7    1
    27    11    29    1
    28    11     3    1
    29    11    28    1
    30     3     1    1
    31     3    10    1
    32     7     5    1
    33     7    18    1
    34     7     6    1
    35     1     6    1
    36    24    10    1
    37    17     6    1
    38     6    16    1
    39    10    26    1
    40    10    25    1
