@<TRIPOS>MOLECULE
1,2,3
 49 50 0 0 0
SMALL
GASTEIGER

@<TRIPOS>ATOM
      1 N           1.8375   16.7697    4.5335 N.pl3   1  UNL1        0.0000
      2 N           4.8002   18.2089    2.1288 N.pl3   1  UNL1        0.0000
      3 O           4.1579   17.8313    4.5368 O.3     1  UNL1        0.0000
      4 SI          0.4943   15.6992    4.4191 Si      1  UNL1        0.0000
      5 SI          5.0003   18.9045    0.5684 Si      1  UNL1        0.0000
      6 C           3.5095   17.9473    5.7449 C.ar    1  UNL1        0.0000
      7 C           2.2039   17.3912    5.6873 C.ar    1  UNL1        0.0000
      8 C           1.4133   17.5609    6.8329 C.ar    1  UNL1        0.0000
      9 C           1.8929   18.2343    7.9410 C.ar    1  UNL1        0.0000
     10 C           3.1651   18.7784    7.9564 C.ar    1  UNL1        0.0000
     11 C           3.9769   18.6466    6.8362 C.ar    1  UNL1        0.0000
     12 C           5.5144   17.7243    4.3383 C.ar    1  UNL1        0.0000
     13 C           5.8346   17.9286    2.9689 C.ar    1  UNL1        0.0000
     14 C           7.1846   17.7937    2.6243 C.ar    1  UNL1        0.0000
     15 C           8.1335   17.4545    3.5726 C.ar    1  UNL1        0.0000
     16 C           7.7816   17.2293    4.8908 C.ar    1  UNL1        0.0000
     17 C           6.4514   17.3580    5.2773 C.ar    1  UNL1        0.0000
     18 C          -1.1981   16.5711    4.1418 C.3     1  UNL1        0.0000
     19 C           0.3345   14.5903    5.9896 C.3     1  UNL1        0.0000
     20 C           0.7498   14.4955    2.9595 C.3     1  UNL1        0.0000
     21 C           3.3563   19.7732    0.1249 C.3     1  UNL1        0.0000
     22 C           6.3720   20.2582    0.5531 C.3     1  UNL1        0.0000
     23 C           5.4317   17.6708   -0.8432 C.3     1  UNL1        0.0000
     24 H           0.4080   17.1719    6.8313 H       1  UNL1        0.0000
     25 H           1.2549   18.3465    8.8060 H       1  UNL1        0.0000
     26 H           3.5253   19.3139    8.8209 H       1  UNL1        0.0000
     27 H           4.9577   19.1001    6.8128 H       1  UNL1        0.0000
     28 H           7.4739   17.9350    1.5954 H       1  UNL1        0.0000
     29 H           9.1663   17.3524    3.2715 H       1  UNL1        0.0000
     30 H           8.5257   16.9483    5.6197 H       1  UNL1        0.0000
     31 H           6.1559   17.1561    6.2970 H       1  UNL1        0.0000
     32 H          -1.2112   17.1026    3.1937 H       1  UNL1        0.0000
     33 H          -1.4354   17.2819    4.9294 H       1  UNL1        0.0000
     34 H          -2.0015   15.8417    4.1123 H       1  UNL1        0.0000
     35 H           0.2630   13.5403    5.7245 H       1  UNL1        0.0000
     36 H           1.1888   14.7037    6.6512 H       1  UNL1        0.0000
     37 H          -0.5518   14.8368    6.5651 H       1  UNL1        0.0000
     38 H           1.7348   14.0364    2.9694 H       1  UNL1        0.0000
     39 H           0.6257   15.0092    2.0145 H       1  UNL1        0.0000
     40 H           0.0129   13.6993    2.9963 H       1  UNL1        0.0000
     41 H           3.3679   20.8317    0.3681 H       1  UNL1        0.0000
     42 H           3.1510   19.6856   -0.9363 H       1  UNL1        0.0000
     43 H           2.5382   19.3091    0.6696 H       1  UNL1        0.0000
     44 H           7.2878   19.8942    0.0997 H       1  UNL1        0.0000
     45 H           6.6206   20.5889    1.5578 H       1  UNL1        0.0000
     46 H           6.0590   21.1299   -0.0127 H       1  UNL1        0.0000
     47 H           6.3211   17.0857   -0.6234 H       1  UNL1        0.0000
     48 H           5.6185   18.2060   -1.7692 H       1  UNL1        0.0000
     49 H           4.6147   16.9803   -1.0301 H       1  UNL1        0.0000
@<TRIPOS>BOND
     1    48    23    1
     2    49    23    1
     3    42    21    1
     4    23    47    1
     5    23     5    1
     6    46    22    1
     7    44    22    1
     8    21    41    1
     9    21     5    1
    10    21    43    1
    11    22     5    1
    12    22    45    1
    13     5     2    1
    14    28    14    1
    15    39    20    1
    16     2    13    1
    17    14    13   ar
    18    14    15   ar
    19    20    38    1
    20    20    40    1
    21    20     4    1
    22    13    12   ar
    23    32    18    1
    24    29    15    1
    25    15    16   ar
    26    34    18    1
    27    18     4    1
    28    18    33    1
    29    12     3    1
    30    12    17   ar
    31     4     1    1
    32     4    19    1
    33     1     7    1
    34     3     6    1
    35    16    17   ar
    36    16    30    1
    37    17    31    1
    38     7     6   ar
    39     7     8   ar
    40    35    19    1
    41     6    11   ar
    42    19    37    1
    43    19    36    1
    44    27    11    1
    45    24     8    1
    46     8     9   ar
    47    11    10   ar
    48     9    10   ar
    49     9    25    1
    50    10    26    1
