@<TRIPOS>MOLECULE
1,2,3
 49 50 0 0 0
SMALL
GASTEIGER

@<TRIPOS>ATOM
      1 N           7.0770    3.1673   13.3425 N.pl3   1  UNL1        0.0000
      2 N           8.2773    0.9992   15.0080 N.pl3   1  UNL1        0.0000
      3 O           6.8790    0.4549   12.8038 O.3     1  UNL1        0.0000
      4 SI          7.0111    4.8823   13.6085 Si      1  UNL1        0.0000
      5 SI          9.4125    1.7346   16.0764 Si      1  UNL1        0.0000
      6 C           7.6204    1.2840   11.9399 C.ar    1  UNL1        0.0000
      7 C           7.6891    2.6669   12.2293 C.ar    1  UNL1        0.0000
      8 C           8.3964    3.4369   11.2843 C.ar    1  UNL1        0.0000
      9 C           8.9995    2.8806   10.1764 C.ar    1  UNL1        0.0000
     10 C           8.9264    1.5193    9.9348 C.ar    1  UNL1        0.0000
     11 C           8.2273    0.7275   10.8290 C.ar    1  UNL1        0.0000
     12 C           7.6824   -0.5687   13.3306 C.ar    1  UNL1        0.0000
     13 C           8.4913   -0.2122   14.4345 C.ar    1  UNL1        0.0000
     14 C           9.4059   -1.1933   14.8593 C.ar    1  UNL1        0.0000
     15 C           9.4290   -2.4483   14.2852 C.ar    1  UNL1        0.0000
     16 C           8.5558   -2.7925   13.2657 C.ar    1  UNL1        0.0000
     17 C           7.6860   -1.8293   12.7735 C.ar    1  UNL1        0.0000
     18 C           8.7502    5.7211   13.6325 C.3     1  UNL1        0.0000
     19 C           5.9706    5.7228   12.2097 C.3     1  UNL1        0.0000
     20 C           6.1458    5.3930   15.2338 C.3     1  UNL1        0.0000
     21 C           8.6690    3.4058   16.6051 C.3     1  UNL1        0.0000
     22 C           9.7688    0.7290   17.6899 C.3     1  UNL1        0.0000
     23 C          11.0860    2.0215   15.1804 C.3     1  UNL1        0.0000
     24 H           8.4817    4.4972   11.4426 H       1  UNL1        0.0000
     25 H           9.5376    3.5207    9.4918 H       1  UNL1        0.0000
     26 H           9.4001    1.0793    9.0715 H       1  UNL1        0.0000
     27 H           8.1552   -0.3388   10.6690 H       1  UNL1        0.0000
     28 H          10.0813   -0.9610   15.6663 H       1  UNL1        0.0000
     29 H          10.1360   -3.1804   14.6494 H       1  UNL1        0.0000
     30 H           8.5636   -3.7849   12.8429 H       1  UNL1        0.0000
     31 H           7.0084   -2.0565   11.9607 H       1  UNL1        0.0000
     32 H           9.5477    4.9836   13.6480 H       1  UNL1        0.0000
     33 H           8.8709    6.3532   14.5069 H       1  UNL1        0.0000
     34 H           8.9058    6.3532   12.7630 H       1  UNL1        0.0000
     35 H           6.1448    6.7942   12.1938 H       1  UNL1        0.0000
     36 H           4.9051    5.5738   12.3666 H       1  UNL1        0.0000
     37 H           6.2141    5.3390   11.2228 H       1  UNL1        0.0000
     38 H           5.8061    4.5255   15.7876 H       1  UNL1        0.0000
     39 H           6.8169    5.9539   15.8742 H       1  UNL1        0.0000
     40 H           5.2841    6.0218   15.0372 H       1  UNL1        0.0000
     41 H           7.6004    3.4020   16.4019 H       1  UNL1        0.0000
     42 H           8.8278    3.6088   17.6596 H       1  UNL1        0.0000
     43 H           9.1091    4.2238   16.0478 H       1  UNL1        0.0000
     44 H           9.8364    1.3860   18.5516 H       1  UNL1        0.0000
     45 H          10.7101    0.1905   17.6284 H       1  UNL1        0.0000
     46 H           8.9878    0.0013   17.8956 H       1  UNL1        0.0000
     47 H          11.5545    1.0842   14.8953 H       1  UNL1        0.0000
     48 H          11.7866    2.5633   15.8077 H       1  UNL1        0.0000
     49 H          10.9383    2.5982   14.2709 H       1  UNL1        0.0000
@<TRIPOS>BOND
     1    26    10    1
     2    25     9    1
     3    10     9   ar
     4    10    11   ar
     5     9     8   ar
     6    27    11    1
     7    11     6   ar
     8    37    19    1
     9     8    24    1
    10     8     7   ar
    11     6     7   ar
    12     6     3    1
    13    31    17    1
    14    35    19    1
    15    19    36    1
    16    19     4    1
    17     7     1    1
    18    34    18    1
    19    17    16   ar
    20    17    12   ar
    21     3    12    1
    22    30    16    1
    23    16    15   ar
    24    12    13   ar
    25     1     4    1
    26     4    18    1
    27     4    20    1
    28    18    32    1
    29    18    33    1
    30    49    23    1
    31    15    29    1
    32    15    14   ar
    33    13    14   ar
    34    13     2    1
    35    14    28    1
    36    47    23    1
    37     2     5    1
    38    40    20    1
    39    23    48    1
    40    23     5    1
    41    20    38    1
    42    20    39    1
    43    43    21    1
    44     5    21    1
    45     5    22    1
    46    41    21    1
    47    21    42    1
    48    45    22    1
    49    22    46    1
    50    22    44    1
