@<TRIPOS>MOLECULE
2,3,4
 67 70 0 0 0
SMALL
GASTEIGER

@<TRIPOS>ATOM
      1 P           4.7010    5.4298   11.3792 P.3     1  UNL1        0.1121
      2 O           3.3169    4.9189   11.6489 O.3     1  UNL1       -0.2024
      3 N           2.0647    6.4728   14.9222 N.pl3   1  UNL1       -0.2185
      4 N           4.0367    5.9074   14.1503 N.pl3   1  UNL1       -0.2184
      5 C           3.3178    6.8450   14.7648 C.3     1  UNL1        0.1807
      6 C           3.9126    8.2229   15.1197 C.3     1  UNL1        0.0070
      7 C           2.8609    9.3264   15.2895 C.3     1  UNL1       -0.0563
      8 H           3.3763   10.2790   15.4088 H       1  UNL1        0.0236
      9 H           2.2449    9.1674   16.1680 H       1  UNL1        0.0236
     10 H           2.2166    9.4058   14.4201 H       1  UNL1        0.0236
     11 C           4.7063    8.1389   16.4346 C.3     1  UNL1       -0.0563
     12 H           4.8326    9.1389   16.8459 H       1  UNL1        0.0236
     13 H           5.6939    7.7205   16.2699 H       1  UNL1        0.0236
     14 H           4.1811    7.5346   17.1695 H       1  UNL1        0.0236
     15 C           4.8475    8.6789   13.9898 C.3     1  UNL1       -0.0563
     16 H           5.2720    9.6497   14.2392 H       1  UNL1        0.0236
     17 H           4.2961    8.7752   13.0564 H       1  UNL1        0.0236
     18 H           5.6682    7.9845   13.8338 H       1  UNL1        0.0236
     19 C           0.9818    7.2171   15.4074 C.ar    1  UNL1        0.0562
     20 C           0.1167    7.8235   14.4805 C.ar    1  UNL1       -0.0276
     21 C          -0.9989    8.5065   14.9322 C.ar    1  UNL1       -0.0570
     22 H          -1.6584    8.9772   14.2171 H       1  UNL1        0.0621
     23 C          -1.2800    8.5879   16.2858 C.ar    1  UNL1       -0.0611
     24 H          -2.1496    9.1275   16.6288 H       1  UNL1        0.0618
     25 C          -0.4516    7.9551   17.1924 C.ar    1  UNL1       -0.0570
     26 H          -0.6784    7.9932   18.2484 H       1  UNL1        0.0621
     27 C           0.6748    7.2590   16.7736 C.ar    1  UNL1       -0.0276
     28 C           0.4157    7.6978   13.0184 C.3     1  UNL1       -0.0379
     29 H          -0.3786    8.1420   12.4228 H       1  UNL1        0.0278
     30 H           0.5051    6.6347   12.7651 H       1  UNL1        0.0278
     31 H           1.3587    8.1847   12.7627 H       1  UNL1        0.0278
     32 C           1.5326    6.5690   17.7945 C.3     1  UNL1       -0.0379
     33 H           0.9180    5.9295   18.4266 H       1  UNL1        0.0278
     34 H           2.0237    7.2992   18.4395 H       1  UNL1        0.0278
     35 H           2.2923    5.9570   17.3134 H       1  UNL1        0.0278
     36 C           5.3742    5.6757   14.0449 C.ar    1  UNL1        0.0604
     37 C           6.2636    5.5498   15.1255 C.ar    1  UNL1       -0.0383
     38 H           5.8887    5.6488   16.1310 H       1  UNL1        0.0637
     39 C           7.5926    5.2557   14.9118 C.ar    1  UNL1       -0.0599
     40 H           8.2597    5.1729   15.7577 H       1  UNL1        0.0618
     41 C           8.0851    5.0522   13.6288 C.ar    1  UNL1       -0.0610
     42 H           9.1301    4.8335   13.4730 H       1  UNL1        0.0618
     43 C           7.2134    5.0931   12.5574 C.ar    1  UNL1       -0.0499
     44 H           7.5698    4.8890   11.5568 H       1  UNL1        0.0625
     45 C           5.8717    5.3838   12.7588 C.ar    1  UNL1        0.0304
     46 C           4.6339    7.1411   10.7760 C.ar    1  UNL1        0.0079
     47 C           3.3940    7.7162   10.5335 C.ar    1  UNL1       -0.0517
     48 H           2.5035    7.1233   10.6880 H       1  UNL1        0.0625
     49 C           3.3156    9.0293   10.1029 C.ar    1  UNL1       -0.0611
     50 H           2.3520    9.4804    9.9169 H       1  UNL1        0.0618
     51 C           4.4746    9.7644    9.9121 C.ar    1  UNL1       -0.0617
     52 H           4.4139   10.7894    9.5779 H       1  UNL1        0.0618
     53 C           5.7138    9.1890   10.1508 C.ar    1  UNL1       -0.0611
     54 H           6.6143    9.7658   10.0010 H       1  UNL1        0.0618
     55 C           5.7961    7.8790   10.5856 C.ar    1  UNL1       -0.0517
     56 H           6.7554    7.4229   10.7856 H       1  UNL1        0.0625
     57 C           5.4560    4.3985   10.0880 C.ar    1  UNL1        0.0079
     58 C           5.7377    4.8435    8.8063 C.ar    1  UNL1       -0.0517
     59 H           5.5557    5.8758    8.5415 H       1  UNL1        0.0625
     60 C           6.2530    3.9582    7.8734 C.ar    1  UNL1       -0.0611
     61 H           6.4760    4.3008    6.8737 H       1  UNL1        0.0618
     62 C           6.4778    2.6361    8.2196 C.ar    1  UNL1       -0.0617
     63 H           6.8769    1.9498    7.4875 H       1  UNL1        0.0618
     64 C           6.1890    2.1902    9.5008 C.ar    1  UNL1       -0.0611
     65 H           6.3588    1.1576    9.7665 H       1  UNL1        0.0618
     66 C           5.6789    3.0704   10.4365 C.ar    1  UNL1       -0.0517
     67 H           5.4433    2.7464   11.4424 H       1  UNL1        0.0625
@<TRIPOS>BOND
     1    61    60    1
     2    63    62    1
     3    60    62   ar
     4    60    58   ar
     5    62    64   ar
     6    59    58    1
     7    58    57   ar
     8    64    65    1
     9    64    66   ar
    10    52    51    1
    11    51    49   ar
    12    51    53   ar
    13    50    49    1
    14    54    53    1
    15    57    66   ar
    16    57     1    1
    17    49    47   ar
    18    53    55   ar
    19    66    67    1
    20    47    48    1
    21    47    46   ar
    22    55    46   ar
    23    55    56    1
    24    46     1    1
    25     1     2    1
    26     1    45    1
    27    44    43    1
    28    29    28    1
    29    43    45   ar
    30    43    41   ar
    31    45    36   ar
    32    31    28    1
    33    30    28    1
    34    28    20    1
    35    17    15    1
    36    42    41    1
    37    41    39   ar
    38    18    15    1
    39    15    16    1
    40    15     6    1
    41    36     4    1
    42    36    37   ar
    43     4     5    1
    44    22    21    1
    45    10     7    1
    46    20    21   ar
    47    20    19   ar
    48     5     3    1
    49     5     6    1
    50    39    37   ar
    51    39    40    1
    52     3    19    1
    53    21    23   ar
    54     6     7    1
    55     6    11    1
    56    37    38    1
    57     7     8    1
    58     7     9    1
    59    19    27   ar
    60    13    11    1
    61    23    24    1
    62    23    25   ar
    63    11    12    1
    64    11    14    1
    65    27    25   ar
    66    27    32    1
    67    25    26    1
    68    35    32    1
    69    32    33    1
    70    32    34    1
