@<TRIPOS>MOLECULE
2,3,4
 67 70 0 0 0
SMALL
GASTEIGER

@<TRIPOS>ATOM
      1 P           4.7188    5.2525   11.2808 P.3     1  UNL1        0.1121
      2 O           3.4252    4.5159   11.4726 O.3     1  UNL1       -0.2024
      3 N           2.1680    6.5782   14.7992 N.pl3   1  UNL1       -0.2185
      4 N           4.0734    6.0769   13.8085 N.pl3   1  UNL1       -0.2184
      5 C           3.3904    6.9749   14.5383 C.3     1  UNL1        0.1807
      6 C           3.9564    8.3687   14.8776 C.3     1  UNL1        0.0070
      7 C           3.0603    9.4593   14.2709 C.3     1  UNL1       -0.0563
      8 H           3.4633   10.4366   14.5313 H       1  UNL1        0.0236
      9 H           2.0454    9.4055   14.6502 H       1  UNL1        0.0236
     10 H           3.0477    9.3782   13.1855 H       1  UNL1        0.0236
     11 C           4.0127    8.5716   16.3967 C.3     1  UNL1       -0.0563
     12 H           4.5480    9.4936   16.6169 H       1  UNL1        0.0236
     13 H           4.5344    7.7519   16.8850 H       1  UNL1        0.0236
     14 H           3.0135    8.6507   16.8117 H       1  UNL1        0.0236
     15 C           5.3594    8.5955   14.3000 C.3     1  UNL1       -0.0563
     16 H           5.6025    9.6548   14.3694 H       1  UNL1        0.0236
     17 H           5.4012    8.3084   13.2526 H       1  UNL1        0.0236
     18 H           6.1202    8.0433   14.8417 H       1  UNL1        0.0236
     19 C           1.1091    7.2925   15.3784 C.ar    1  UNL1        0.0562
     20 C           0.1580    7.8837   14.5257 C.ar    1  UNL1       -0.0276
     21 C          -0.9251    8.5521   15.0694 C.ar    1  UNL1       -0.0570
     22 H          -1.6469    9.0142   14.4115 H       1  UNL1        0.0621
     23 C          -1.0992    8.6220   16.4416 C.ar    1  UNL1       -0.0611
     24 H          -1.9412    9.1547   16.8565 H       1  UNL1        0.0618
     25 C          -0.2103    7.9689   17.2722 C.ar    1  UNL1       -0.0570
     26 H          -0.3679    7.9739   18.3413 H       1  UNL1        0.0621
     27 C           0.8866    7.2857   16.7616 C.ar    1  UNL1       -0.0276
     28 C           0.3082    7.7250   13.0443 C.3     1  UNL1       -0.0379
     29 H          -0.4991    8.2325   12.5211 H       1  UNL1        0.0278
     30 H           0.2710    6.6544   12.8039 H       1  UNL1        0.0278
     31 H           1.2595    8.1219   12.6942 H       1  UNL1        0.0278
     32 C           1.7592    6.5063   17.7046 C.3     1  UNL1       -0.0379
     33 H           1.1779    5.6947   18.1429 H       1  UNL1        0.0278
     34 H           2.1134    7.1344   18.5214 H       1  UNL1        0.0278
     35 H           2.6138    6.0777   17.1888 H       1  UNL1        0.0278
     36 C           5.3812    5.7150   13.8486 C.ar    1  UNL1        0.0604
     37 C           6.2111    5.6883   14.9815 C.ar    1  UNL1       -0.0383
     38 H           5.8199    6.0093   15.9358 H       1  UNL1        0.0637
     39 C           7.5077    5.2342   14.8781 C.ar    1  UNL1       -0.0599
     40 H           8.1366    5.2242   15.7570 H       1  UNL1        0.0618
     41 C           8.0228    4.7881   13.6665 C.ar    1  UNL1       -0.0610
     42 H           9.0437    4.4455   13.6036 H       1  UNL1        0.0618
     43 C           7.2092    4.7610   12.5481 C.ar    1  UNL1       -0.0499
     44 H           7.5852    4.3926   11.6035 H       1  UNL1        0.0625
     45 C           5.9005    5.2030   12.6441 C.ar    1  UNL1        0.0304
     46 C           4.4424    6.9987   10.8777 C.ar    1  UNL1        0.0079
     47 C           3.1478    7.4511   10.6688 C.ar    1  UNL1       -0.0517
     48 H           2.3287    6.7492   10.7480 H       1  UNL1        0.0625
     49 C           2.9236    8.7826   10.3632 C.ar    1  UNL1       -0.0611
     50 H           1.9164    9.1380   10.2011 H       1  UNL1        0.0618
     51 C           3.9919    9.6601   10.2640 C.ar    1  UNL1       -0.0617
     52 H           3.8165   10.6989   10.0270 H       1  UNL1        0.0618
     53 C           5.2862    9.2091   10.4726 C.ar    1  UNL1       -0.0611
     54 H           6.1164    9.8958   10.3990 H       1  UNL1        0.0618
     55 C           5.5137    7.8800   10.7829 C.ar    1  UNL1       -0.0517
     56 H           6.5171    7.5175   10.9617 H       1  UNL1        0.0625
     57 C           5.5741    4.4849    9.8718 C.ar    1  UNL1        0.0079
     58 C           6.1080    5.1699    8.7914 C.ar    1  UNL1       -0.0517
     59 H           6.0330    6.2468    8.7415 H       1  UNL1        0.0625
     60 C           6.7314    4.4659    7.7742 C.ar    1  UNL1       -0.0611
     61 H           7.1468    4.9974    6.9306 H       1  UNL1        0.0618
     62 C           6.8216    3.0852    7.8353 C.ar    1  UNL1       -0.0617
     63 H           7.3098    2.5426    7.0393 H       1  UNL1        0.0618
     64 C           6.2834    2.3988    8.9133 C.ar    1  UNL1       -0.0611
     65 H           6.3507    1.3221    8.9591 H       1  UNL1        0.0618
     66 C           5.6600    3.0976    9.9297 C.ar    1  UNL1       -0.0517
     67 H           5.2272    2.5846   10.7786 H       1  UNL1        0.0625
@<TRIPOS>BOND
     1    61    60    1
     2    63    62    1
     3    60    62   ar
     4    60    58   ar
     5    62    64   ar
     6    59    58    1
     7    58    57   ar
     8    64    65    1
     9    64    66   ar
    10    57    66   ar
    11    57     1    1
    12    66    67    1
    13    52    51    1
    14    50    49    1
    15    51    49   ar
    16    51    53   ar
    17    49    47   ar
    18    54    53    1
    19    53    55   ar
    20    47    48    1
    21    47    46   ar
    22    55    46   ar
    23    55    56    1
    24    46     1    1
    25     1     2    1
    26     1    45    1
    27    44    43    1
    28    29    28    1
    29    43    45   ar
    30    43    41   ar
    31    45    36   ar
    32    31    28    1
    33    30    28    1
    34    28    20    1
    35    10     7    1
    36    17    15    1
    37    42    41    1
    38    41    39   ar
    39     4    36    1
    40     4     5    1
    41    36    37   ar
    42     7     8    1
    43     7     9    1
    44     7     6    1
    45    15    16    1
    46    15    18    1
    47    15     6    1
    48    22    21    1
    49    20    21   ar
    50    20    19   ar
    51     5     3    1
    52     5     6    1
    53     3    19    1
    54     6    11    1
    55    39    37   ar
    56    39    40    1
    57    37    38    1
    58    21    23   ar
    59    19    27   ar
    60    11    12    1
    61    11    14    1
    62    11    13    1
    63    23    24    1
    64    23    25   ar
    65    27    25   ar
    66    27    32    1
    67    35    32    1
    68    25    26    1
    69    32    33    1
    70    32    34    1
