@<TRIPOS>MOLECULE
1,5
 41 40 0 0 0
SMALL
GASTEIGER

@<TRIPOS>ATOM
      1 SI          1.0046   13.5430   -0.3425 Si      1  UNL1        0.0000
      2 SI          2.3158   15.4671   -0.7581 Si      1  UNL1        0.0000
      3 SI         -1.3165   13.7554   -0.7330 Si      1  UNL1        0.0000
      4 SI          1.9120   11.5825   -1.3257 Si      1  UNL1        0.0000
      5 O           1.2656   13.3583    1.2370 O.3     1  UNL1        0.0000
      6 C           1.5392   17.1098   -0.1203 C.3     1  UNL1        0.0000
      7 H           0.5672   17.2822   -0.5744 H       1  UNL1        0.0000
      8 H           2.1570   17.9751   -0.3485 H       1  UNL1        0.0000
      9 H           1.3978   17.0767    0.9568 H       1  UNL1        0.0000
     10 C           2.7404   15.7667   -2.6043 C.3     1  UNL1        0.0000
     11 H           3.2111   14.9013   -3.0588 H       1  UNL1        0.0000
     12 H           3.4146   16.6081   -2.7266 H       1  UNL1        0.0000
     13 H           1.8444   15.9840   -3.1753 H       1  UNL1        0.0000
     14 C           3.9631   15.2267    0.1952 C.3     1  UNL1        0.0000
     15 H           3.7273   14.8225    1.1847 H       1  UNL1        0.0000
     16 H           4.5360   16.1402    0.3299 H       1  UNL1        0.0000
     17 H           4.6061   14.5108   -0.3099 H       1  UNL1        0.0000
     18 C          -2.3705   14.8775    0.4189 C.3     1  UNL1        0.0000
     19 H          -2.3905   14.4916    1.4336 H       1  UNL1        0.0000
     20 H          -3.4005   14.9578    0.0792 H       1  UNL1        0.0000
     21 H          -1.9632   15.8832    0.4635 H       1  UNL1        0.0000
     22 C          -2.2472   12.0709   -0.7821 C.3     1  UNL1        0.0000
     23 H          -1.7408   11.3705   -1.4400 H       1  UNL1        0.0000
     24 H          -3.2645   12.1807   -1.1485 H       1  UNL1        0.0000
     25 H          -2.3020   11.6110    0.2002 H       1  UNL1        0.0000
     26 C          -1.4897   14.4921   -2.4933 C.3     1  UNL1        0.0000
     27 H          -1.0627   15.4880   -2.5543 H       1  UNL1        0.0000
     28 H          -2.5280   14.5633   -2.8008 H       1  UNL1        0.0000
     29 H          -0.9760   13.8751   -3.2232 H       1  UNL1        0.0000
     30 C           3.8208   11.7228   -1.4979 C.3     1  UNL1        0.0000
     31 H           4.1035   12.4944   -2.2088 H       1  UNL1        0.0000
     32 H           4.2872   10.7955   -1.8228 H       1  UNL1        0.0000
     33 H           4.2396   11.9919   -0.5319 H       1  UNL1        0.0000
     34 C           1.2583   11.2474   -3.0973 C.3     1  UNL1        0.0000
     35 H           0.1866   11.0824   -3.1115 H       1  UNL1        0.0000
     36 H           1.7281   10.3742   -3.5375 H       1  UNL1        0.0000
     37 H           1.4644   12.0896   -3.7490 H       1  UNL1        0.0000
     38 C           1.5776   10.0006   -0.2886 C.3     1  UNL1        0.0000
     39 H           1.9337   10.1839    0.7245 H       1  UNL1        0.0000
     40 H           2.0901    9.1199   -0.6694 H       1  UNL1        0.0000
     41 H           0.5175    9.7652   -0.2361 H       1  UNL1        0.0000
@<TRIPOS>BOND
     1    37    34    1
     2    36    34    1
     3    29    26    1
     4    13    10    1
     5    35    34    1
     6    34     4    1
     7    11    10    1
     8    28    26    1
     9    12    10    1
    10    10     2    1
    11    27    26    1
    12    26     3    1
    13    31    30    1
    14    32    30    1
    15    30     4    1
    16    30    33    1
    17    23    22    1
    18     4     1    1
    19     4    38    1
    20    24    22    1
    21    22     3    1
    22    22    25    1
    23     2     1    1
    24     2     6    1
    25     2    14    1
    26     3     1    1
    27     3    18    1
    28    40    38    1
    29     7     6    1
    30     8     6    1
    31     1     5    1
    32    17    14    1
    33    38    41    1
    34    38    39    1
    35     6     9    1
    36    20    18    1
    37    14    16    1
    38    14    15    1
    39    18    21    1
    40    18    19    1
