@<TRIPOS>MOLECULE
1,5
 41 40 0 0 0
SMALL
GASTEIGER

@<TRIPOS>ATOM
      1 SI          3.1996   15.3113    4.4805 Si      1  UNL1        0.0000
      2 SI          3.9301   14.1504    6.4226 Si      1  UNL1        0.0000
      3 SI          0.9463   16.0095    4.7140 Si      1  UNL1        0.0000
      4 SI          4.7867   16.9271    3.8021 Si      1  UNL1        0.0000
      5 O           3.1401   14.2144    3.2946 O.3     1  UNL1        0.0000
      6 C           3.8528   15.2527    7.9896 C.3     1  UNL1        0.0000
      7 H           4.4649   16.1405    7.8770 H       1  UNL1        0.0000
      8 H           4.2123   14.7198    8.8641 H       1  UNL1        0.0000
      9 H           2.8416   15.5829    8.2025 H       1  UNL1        0.0000
     10 C           5.7727   13.5878    6.3175 C.3     1  UNL1        0.0000
     11 H           5.9917   13.1020    5.3714 H       1  UNL1        0.0000
     12 H           6.0425   12.8977    7.1132 H       1  UNL1        0.0000
     13 H           6.4330   14.4466    6.3993 H       1  UNL1        0.0000
     14 C           2.8697   12.5913    6.8197 C.3     1  UNL1        0.0000
     15 H           2.1778   12.7817    7.6359 H       1  UNL1        0.0000
     16 H           3.4652   11.7236    7.0936 H       1  UNL1        0.0000
     17 H           2.2780   12.3278    5.9431 H       1  UNL1        0.0000
     18 C           0.7397   17.9035    4.9618 C.3     1  UNL1        0.0000
     19 H           1.3080   18.2397    5.8225 H       1  UNL1        0.0000
     20 H          -0.2979   18.1694    5.1359 H       1  UNL1        0.0000
     21 H           1.0826   18.4719    4.1038 H       1  UNL1        0.0000
     22 C           0.1209   15.2026    6.2526 C.3     1  UNL1        0.0000
     23 H           0.2264   14.1231    6.2160 H       1  UNL1        0.0000
     24 H          -0.9398   15.4329    6.3190 H       1  UNL1        0.0000
     25 H           0.5818   15.5463    7.1737 H       1  UNL1        0.0000
     26 C          -0.1416   15.5248    3.2105 C.3     1  UNL1        0.0000
     27 H          -0.1813   16.3076    2.4585 H       1  UNL1        0.0000
     28 H          -1.1657   15.2939    3.4939 H       1  UNL1        0.0000
     29 H           0.2881   14.6343    2.7408 H       1  UNL1        0.0000
     30 C           5.3560   17.8833    5.3618 C.3     1  UNL1        0.0000
     31 H           4.5081   18.3056    5.8912 H       1  UNL1        0.0000
     32 H           6.0187   18.7032    5.1052 H       1  UNL1        0.0000
     33 H           5.8874   17.2420    6.0571 H       1  UNL1        0.0000
     34 C           4.1454   18.2825    2.5993 C.3     1  UNL1        0.0000
     35 H           3.6635   17.8543    1.7271 H       1  UNL1        0.0000
     36 H           4.9475   18.9279    2.2501 H       1  UNL1        0.0000
     37 H           3.4164   18.9158    3.0965 H       1  UNL1        0.0000
     38 C           6.3930   16.2026    3.0275 C.3     1  UNL1        0.0000
     39 H           6.8974   15.5497    3.7345 H       1  UNL1        0.0000
     40 H           7.0997   16.9770    2.7387 H       1  UNL1        0.0000
     41 H           6.1738   15.6119    2.1435 H       1  UNL1        0.0000
@<TRIPOS>BOND
     1    35    34    1
     2    41    38    1
     3    36    34    1
     4    27    26    1
     5    34    37    1
     6    34     4    1
     7    40    38    1
     8    29    26    1
     9    38    39    1
    10    38     4    1
    11    26    28    1
    12    26     3    1
    13     5     1    1
    14     4     1    1
    15     4    30    1
    16    21    18    1
    17     1     3    1
    18     1     2    1
    19     3    18    1
    20     3    22    1
    21    18    20    1
    22    18    19    1
    23    32    30    1
    24    30    31    1
    25    30    33    1
    26    11    10    1
    27    17    14    1
    28    23    22    1
    29    22    24    1
    30    22    25    1
    31    10    13    1
    32    10     2    1
    33    10    12    1
    34     2    14    1
    35     2     6    1
    36    14    16    1
    37    14    15    1
    38     7     6    1
    39     6     9    1
    40     6     8    1
