@<TRIPOS>MOLECULE
1,5
 41 41 0 0 0
SMALL
GASTEIGER

@<TRIPOS>ATOM
      1 SI          6.5788    6.1304    4.3278 Si      1  UNL1        0.0000
      2 SI          6.0396    4.9703    6.3173 Si      1  UNL1        0.0000
      3 SI          4.8148    7.4293    3.4620 Si      1  UNL1        0.0000
      4 SI          8.6637    7.2419    4.5384 Si      1  UNL1        0.0000
      5 O           6.8910    5.0771    3.1418 O.3     1  UNL1        0.0000
      6 C           4.3041    4.1378    6.2542 C.3     1  UNL1        0.0000
      7 H           3.5271    4.8930    6.1813 H       1  UNL1        0.0000
      8 H           4.0980    3.5468    7.1428 H       1  UNL1        0.0000
      9 H           4.1996    3.4848    5.3930 H       1  UNL1        0.0000
     10 C           7.3027    3.6254    6.8703 C.3     1  UNL1        0.0000
     11 H           8.0860    3.5272    6.1224 H       1  UNL1        0.0000
     12 H           6.8464    2.6472    6.9974 H       1  UNL1        0.0000
     13 H           7.7818    3.8887    7.8092 H       1  UNL1        0.0000
     14 C           5.9337    6.2389    7.7494 C.3     1  UNL1        0.0000
     15 H           6.8863    6.7286    7.9228 H       1  UNL1        0.0000
     16 H           5.6359    5.7640    8.6787 H       1  UNL1        0.0000
     17 H           5.2065    7.0141    7.5338 H       1  UNL1        0.0000
     18 C           3.9477    8.3472    4.8995 C.3     1  UNL1        0.0000
     19 H           3.4878    7.6576    5.5994 H       1  UNL1        0.0000
     20 H           3.1683    9.0076    4.5343 H       1  UNL1        0.0000
     21 H           4.6535    8.9546    5.4563 H       1  UNL1        0.0000
     22 C           3.4498    6.3932    2.5887 C.3     1  UNL1        0.0000
     23 H           3.8552    5.8474    1.7424 H       1  UNL1        0.0000
     24 H           2.6295    7.0063    2.2233 H       1  UNL1        0.0000
     25 H           3.0298    5.6613    3.2731 H       1  UNL1        0.0000
     26 C           5.3617    8.7993    2.2266 C.3     1  UNL1        0.0000
     27 H           5.8025    9.6368    2.7594 H       1  UNL1        0.0000
     28 H           4.5273    9.1884    1.6484 H       1  UNL1        0.0000
     29 H           6.1046    8.4320    1.5256 H       1  UNL1        0.0000
     30 C           9.7327    6.7121    6.0431 C.3     1  UNL1        0.0000
     31 H           9.2960    7.0512    6.9773 H       1  UNL1        0.0000
     32 H          10.7414    7.1154    5.9937 H       1  UNL1        0.0000
     33 H           9.8079    5.6302    6.0885 H       1  UNL1        0.0000
     34 C           9.6641    6.7236    2.9880 C.3     1  UNL1        0.0000
     35 H           9.9082    5.6605    3.0842 H       1  UNL1        0.0000
     36 H          10.5933    7.2708    2.8424 H       1  UNL1        0.0000
     37 H           9.0644    6.8503    2.0842 H       1  UNL1        0.0000
     38 C           8.6446    9.1602    4.5409 C.3     1  UNL1        0.0000
     39 H           8.2030    9.5677    3.6381 H       1  UNL1        0.0000
     40 H           9.6448    9.5718    4.6323 H       1  UNL1        0.0000
     41 H           8.0665    9.5285    5.3810 H       1  UNL1        0.0000
@<TRIPOS>BOND
     1    29    26    1
     2    28    26    1
     3    23    22    1
     4    37    34    1
     5    24    22    1
     6    26    27    1
     7    26     3    1
     8    22    25    1
     9    22     3    1
    10    36    34    1
    11    34    35    1
    12    34     4    1
    13     5     1    1
    14     3     1    1
    15     3    18    1
    16    39    38    1
    17     1     4    1
    18     1     2    1
    19    20    18    1
    20     4    38    1
    21     4    30    1
    22    38    40    1
    23    38    41    1
    24    18    21    1
    25    18    19    1
    26     9     6    1
    27    32    30    1
    28    30    33    1
    29    30    31    1
    30    11    10    1
    31     7     6    1
    32     6     2    1
    33     6     8    1
    34     2    10    1
    35     2    14    1
    36    10    12    1
    37    10    13    1
    38    17    14    1
    39    14    15    1
    40    14    16    1
    41     1    34    0
