@<TRIPOS>MOLECULE
1,5
 41 40 0 0 0
SMALL
GASTEIGER

@<TRIPOS>ATOM
      1 SI         19.8071    4.9241    9.5214 Si      1  UNL1        0.0000
      2 SI         20.7168    5.1814    7.3378 Si      1  UNL1        0.0000
      3 SI         20.4768    2.9824   10.6682 Si      1  UNL1        0.0000
      4 SI         19.9450    6.9796   10.7005 Si      1  UNL1        0.0000
      5 O          18.2878    4.6189    9.0508 O.3     1  UNL1        0.0000
      6 C          19.9422    6.7850    6.6193 C.3     1  UNL1        0.0000
      7 H          18.8860    6.8089    6.9092 H       1  UNL1        0.0000
      8 H          19.9886    6.8463    5.5355 H       1  UNL1        0.0000
      9 H          20.4099    7.6791    7.0231 H       1  UNL1        0.0000
     10 C          20.1005    3.7151    6.2560 C.3     1  UNL1        0.0000
     11 H          20.1696    2.7732    6.7961 H       1  UNL1        0.0000
     12 H          20.6366    3.5919    5.3195 H       1  UNL1        0.0000
     13 H          19.0516    3.8862    6.0195 H       1  UNL1        0.0000
     14 C          22.6135    5.2761    7.1061 C.3     1  UNL1        0.0000
     15 H          23.0417    6.0662    7.7104 H       1  UNL1        0.0000
     16 H          22.8821    5.4713    6.0740 H       1  UNL1        0.0000
     17 H          23.0900    4.3477    7.3988 H       1  UNL1        0.0000
     18 C          22.2229    3.3239   11.3625 C.3     1  UNL1        0.0000
     19 H          22.9120    3.5966   10.5699 H       1  UNL1        0.0000
     20 H          22.6315    2.4543   11.8661 H       1  UNL1        0.0000
     21 H          22.2137    4.1397   12.0773 H       1  UNL1        0.0000
     22 C          20.6640    1.4151    9.5613 C.3     1  UNL1        0.0000
     23 H          19.7561    1.2038    9.0019 H       1  UNL1        0.0000
     24 H          20.9040    0.5271   10.1407 H       1  UNL1        0.0000
     25 H          21.4640    1.5566    8.8398 H       1  UNL1        0.0000
     26 C          19.3784    2.4480   12.1550 C.3     1  UNL1        0.0000
     27 H          19.3616    3.2242   12.9150 H       1  UNL1        0.0000
     28 H          19.7398    1.5383   12.6287 H       1  UNL1        0.0000
     29 H          18.3501    2.2735   11.8514 H       1  UNL1        0.0000
     30 C          21.7035    7.6672   10.3385 C.3     1  UNL1        0.0000
     31 H          22.4668    6.9539   10.6333 H       1  UNL1        0.0000
     32 H          21.8886    8.5839   10.8891 H       1  UNL1        0.0000
     33 H          21.8510    7.8831    9.2851 H       1  UNL1        0.0000
     34 C          19.9141    6.8079   12.6183 C.3     1  UNL1        0.0000
     35 H          18.9332    6.5511   13.0034 H       1  UNL1        0.0000
     36 H          20.2154    7.7383   13.0910 H       1  UNL1        0.0000
     37 H          20.6077    6.0402   12.9490 H       1  UNL1        0.0000
     38 C          18.6750    8.3200   10.1858 C.3     1  UNL1        0.0000
     39 H          19.1452    9.1568    9.6766 H       1  UNL1        0.0000
     40 H          18.1184    8.7182   11.0297 H       1  UNL1        0.0000
     41 H          17.9545    7.8815    9.4947 H       1  UNL1        0.0000
@<TRIPOS>BOND
     1    12    10    1
     2     8     6    1
     3    13    10    1
     4    16    14    1
     5    10    11    1
     6    10     2    1
     7     6     7    1
     8     6     9    1
     9     6     2    1
    10    14     2    1
    11    14    17    1
    12    14    15    1
    13     2     1    1
    14    25    22    1
    15    23    22    1
    16     5     1    1
    17    33    30    1
    18    41    38    1
    19     1     3    1
    20     1     4    1
    21    22    24    1
    22    22     3    1
    23    39    38    1
    24    38     4    1
    25    38    40    1
    26    30    31    1
    27    30     4    1
    28    30    32    1
    29    19    18    1
    30     3    18    1
    31     3    26    1
    32     4    34    1
    33    18    20    1
    34    18    21    1
    35    29    26    1
    36    26    28    1
    37    26    27    1
    38    34    37    1
    39    34    35    1
    40    34    36    1
