@<TRIPOS>MOLECULE
1,5
 41 40 0 0 0
SMALL
GASTEIGER

@<TRIPOS>ATOM
      1 SI         13.9687    4.7012    9.3584 Si      1  UNL1        0.0000
      2 SI         14.9245    4.5455   11.5278 Si      1  UNL1        0.0000
      3 SI         12.4349    2.9541    8.9359 Si      1  UNL1        0.0000
      4 SI         13.4534    6.9326    8.6926 Si      1  UNL1        0.0000
      5 O          15.2810    4.3364    8.4665 O.3     1  UNL1        0.0000
      6 C          16.5505    5.5562   11.6254 C.3     1  UNL1        0.0000
      7 H          16.8864    5.7651   10.6069 H       1  UNL1        0.0000
      8 H          17.3514    5.0234   12.1318 H       1  UNL1        0.0000
      9 H          16.4132    6.5121   12.1218 H       1  UNL1        0.0000
     10 C          15.3757    2.7225   11.9849 C.3     1  UNL1        0.0000
     11 H          14.4841    2.1374   12.1901 H       1  UNL1        0.0000
     12 H          16.0105    2.6617   12.8656 H       1  UNL1        0.0000
     13 H          15.8958    2.2361   11.1634 H       1  UNL1        0.0000
     14 C          13.7746    5.1539   12.9346 C.3     1  UNL1        0.0000
     15 H          13.4854    6.1902   12.8004 H       1  UNL1        0.0000
     16 H          14.2590    5.0705   13.9013 H       1  UNL1        0.0000
     17 H          12.8651    4.5657   12.9750 H       1  UNL1        0.0000
     18 C          10.9881    3.2771    7.7124 C.3     1  UNL1        0.0000
     19 H          10.5051    4.2222    7.9402 H       1  UNL1        0.0000
     20 H          10.2314    2.5017    7.7954 H       1  UNL1        0.0000
     21 H          11.3045    3.3123    6.6757 H       1  UNL1        0.0000
     22 C          11.5414    2.5770   10.5883 C.3     1  UNL1        0.0000
     23 H          12.2309    2.3031   11.3793 H       1  UNL1        0.0000
     24 H          10.8262    1.7678   10.4817 H       1  UNL1        0.0000
     25 H          10.9930    3.4504   10.9258 H       1  UNL1        0.0000
     26 C          13.2649    1.3097    8.3717 C.3     1  UNL1        0.0000
     27 H          13.8587    1.4719    7.4762 H       1  UNL1        0.0000
     28 H          12.5481    0.5223    8.1535 H       1  UNL1        0.0000
     29 H          13.9373    0.9402    9.1412 H       1  UNL1        0.0000
     30 C          14.3476    8.2108    9.8101 C.3     1  UNL1        0.0000
     31 H          14.1087    8.0704   10.8607 H       1  UNL1        0.0000
     32 H          14.0967    9.2362    9.5498 H       1  UNL1        0.0000
     33 H          15.4197    8.0845    9.6877 H       1  UNL1        0.0000
     34 C          11.5730    7.2878    8.8713 C.3     1  UNL1        0.0000
     35 H          10.9726    6.6831    8.2014 H       1  UNL1        0.0000
     36 H          11.3515    8.3270    8.6577 H       1  UNL1        0.0000
     37 H          11.2372    7.0853    9.8817 H       1  UNL1        0.0000
     38 C          13.9047    7.3188    6.8667 C.3     1  UNL1        0.0000
     39 H          14.8477    6.8144    6.6453 H       1  UNL1        0.0000
     40 H          14.0566    8.3818    6.7022 H       1  UNL1        0.0000
     41 H          13.1546    6.9738    6.1609 H       1  UNL1        0.0000
@<TRIPOS>BOND
     1    41    38    1
     2    39    38    1
     3    21    18    1
     4    40    38    1
     5    38     4    1
     6    27    26    1
     7    18    20    1
     8    18    19    1
     9    18     3    1
    10    28    26    1
    11    35    34    1
    12    26     3    1
    13    26    29    1
    14     5     1    1
    15    36    34    1
    16     4    34    1
    17     4     1    1
    18     4    30    1
    19    34    37    1
    20     3     1    1
    21     3    22    1
    22     1     2    1
    23    32    30    1
    24    33    30    1
    25    30    31    1
    26    24    22    1
    27    22    25    1
    28    22    23    1
    29     7     6    1
    30    13    10    1
    31     2     6    1
    32     2    10    1
    33     2    14    1
    34     6     9    1
    35     6     8    1
    36    10    11    1
    37    10    12    1
    38    15    14    1
    39    14    17    1
    40    14    16    1
