@<TRIPOS>MOLECULE
1,2
 41 40 0 0 0
SMALL
GASTEIGER

@<TRIPOS>ATOM
      1 O           3.4480    1.5543    4.8114 O.3     1  UNL1        0.0000
      2 SI          2.7126    1.4600    3.4096 Si      1  UNL1        0.0000
      3 SI          3.9669   -0.1810    2.3185 Si      1  UNL1        0.0000
      4 SI          0.5053    0.9928    4.0934 Si      1  UNL1        0.0000
      5 SI          2.9344    3.6601    2.5884 Si      1  UNL1        0.0000
      6 C           3.5131   -1.9618    2.8674 C.3     1  UNL1        0.0000
      7 H           4.1507   -2.7124    2.4073 H       1  UNL1        0.0000
      8 H           2.4870   -2.2005    2.6038 H       1  UNL1        0.0000
      9 H           3.6053   -2.0657    3.9443 H       1  UNL1        0.0000
     10 C           5.8403    0.0447    2.6574 C.3     1  UNL1        0.0000
     11 H           6.4406   -0.8017    2.3326 H       1  UNL1        0.0000
     12 H           6.2224    0.9306    2.1588 H       1  UNL1        0.0000
     13 H           6.0015    0.1789    3.7229 H       1  UNL1        0.0000
     14 C           3.7058   -0.1012    0.4241 C.3     1  UNL1        0.0000
     15 H           2.6671   -0.2793    0.1655 H       1  UNL1        0.0000
     16 H           4.3015   -0.8465   -0.0930 H       1  UNL1        0.0000
     17 H           3.9788    0.8703    0.0247 H       1  UNL1        0.0000
     18 C           0.3386   -0.7302    4.9308 C.3     1  UNL1        0.0000
     19 H          -0.5631   -0.8275    5.5315 H       1  UNL1        0.0000
     20 H           0.3199   -1.5240    4.1900 H       1  UNL1        0.0000
     21 H           1.1911   -0.9136    5.5790 H       1  UNL1        0.0000
     22 C           0.1352    2.2680    5.4890 C.3     1  UNL1        0.0000
     23 H          -0.2739    3.1916    5.0899 H       1  UNL1        0.0000
     24 H          -0.5630    1.9018    6.2377 H       1  UNL1        0.0000
     25 H           1.0710    2.5229    6.0069 H       1  UNL1        0.0000
     26 C          -0.9464    1.1446    2.8519 C.3     1  UNL1        0.0000
     27 H          -1.9068    1.0048    3.3380 H       1  UNL1        0.0000
     28 H          -0.8651    0.3964    2.0708 H       1  UNL1        0.0000
     29 H          -0.9617    2.1166    2.3702 H       1  UNL1        0.0000
     30 C           2.4852    4.8130    4.0612 C.3     1  UNL1        0.0000
     31 H           1.4090    4.9053    4.1743 H       1  UNL1        0.0000
     32 H           2.8857    5.8197    3.9739 H       1  UNL1        0.0000
     33 H           2.8743    4.3832    4.9947 H       1  UNL1        0.0000
     34 C           4.7603    4.0735    2.1465 C.3     1  UNL1        0.0000
     35 H           5.4305    3.6569    2.8934 H       1  UNL1        0.0000
     36 H           4.9549    5.1418    2.0833 H       1  UNL1        0.0000
     37 H           5.0346    3.6387    1.1896 H       1  UNL1        0.0000
     38 C           1.8672    4.2574    1.1138 C.3     1  UNL1        0.0000
     39 H           0.8074    4.1299    1.3079 H       1  UNL1        0.0000
     40 H           2.0360    5.3071    0.8946 H       1  UNL1        0.0000
     41 H           2.1027    3.6957    0.2163 H       1  UNL1        0.0000
@<TRIPOS>BOND
     1    16    14    1
     2    17    14    1
     3    15    14    1
     4    41    38    1
     5    14     3    1
     6    40    38    1
     7    38    39    1
     8    38     5    1
     9    37    34    1
    10    28    26    1
    11    36    34    1
    12    34     5    1
    13    34    35    1
    14    12    10    1
    15     3    10    1
    16     3     6    1
    17     3     2    1
    18    11    10    1
    19    29    26    1
    20     7     6    1
    21     5     2    1
    22     5    30    1
    23     8     6    1
    24    10    13    1
    25    26    27    1
    26    26     4    1
    27     6     9    1
    28     2     4    1
    29     2     1    1
    30    32    30    1
    31    30    31    1
    32    30    33    1
    33     4    18    1
    34     4    22    1
    35    20    18    1
    36    18    19    1
    37    18    21    1
    38    23    22    1
    39    22    25    1
    40    22    24    1
