@<TRIPOS>MOLECULE
1,2
 41 42 0 0 0
SMALL
GASTEIGER

@<TRIPOS>ATOM
      1 O           2.7759    3.9267    7.5718 O.3     1  UNL1        0.0000
      2 SI          2.6790    4.9710    8.7673 Si      1  UNL1        0.0000
      3 SI          0.5724    4.5407    9.7348 Si      1  UNL1        0.0000
      4 SI          2.8770    7.1038    7.7764 Si      1  UNL1        0.0000
      5 SI          4.4426    4.5634   10.2829 Si      1  UNL1        0.0000
      6 C           0.1454    5.7973   11.1160 C.3     1  UNL1        0.0000
      7 H           0.0553    6.8031   10.7182 H       1  UNL1        0.0000
      8 H          -0.7935    5.5555   11.6042 H       1  UNL1        0.0000
      9 H           0.9141    5.8194   11.8815 H       1  UNL1        0.0000
     10 C           0.5222    2.7965   10.5450 C.3     1  UNL1        0.0000
     11 H          -0.4861    2.4644   10.7790 H       1  UNL1        0.0000
     12 H           0.9697    2.0600    9.8832 H       1  UNL1        0.0000
     13 H           1.0908    2.7850   11.4704 H       1  UNL1        0.0000
     14 C          -0.9013    4.6005    8.5033 C.3     1  UNL1        0.0000
     15 H          -0.7163    3.9483    7.6562 H       1  UNL1        0.0000
     16 H          -1.8419    4.2962    8.9570 H       1  UNL1        0.0000
     17 H          -1.0380    5.6045    8.1124 H       1  UNL1        0.0000
     18 C           4.3972    7.2887    6.6119 C.3     1  UNL1        0.0000
     19 H           4.2893    6.6586    5.7350 H       1  UNL1        0.0000
     20 H           5.3082    6.9823    7.1176 H       1  UNL1        0.0000
     21 H           4.5400    8.3102    6.2676 H       1  UNL1        0.0000
     22 C           1.3454    7.6164    6.7340 C.3     1  UNL1        0.0000
     23 H           1.0953    6.8468    6.0104 H       1  UNL1        0.0000
     24 H           0.4768    7.7562    7.3711 H       1  UNL1        0.0000
     25 H           1.5009    8.5439    6.1882 H       1  UNL1        0.0000
     26 C           3.0793    8.4604    9.1136 C.3     1  UNL1        0.0000
     27 H           3.0551    9.4574    8.6848 H       1  UNL1        0.0000
     28 H           2.2849    8.4044    9.8510 H       1  UNL1        0.0000
     29 H           4.0214    8.3567    9.6425 H       1  UNL1        0.0000
     30 C           4.5685    2.7453   10.8864 C.3     1  UNL1        0.0000
     31 H           3.7004    2.4696   11.4776 H       1  UNL1        0.0000
     32 H           4.6073    2.0710   10.0369 H       1  UNL1        0.0000
     33 H           5.4507    2.5612   11.4947 H       1  UNL1        0.0000
     34 C           6.1733    4.9902    9.5637 C.3     1  UNL1        0.0000
     35 H           6.9865    4.6913   10.2203 H       1  UNL1        0.0000
     36 H           6.2704    6.0583    9.3927 H       1  UNL1        0.0000
     37 H           6.3227    4.4931    8.6102 H       1  UNL1        0.0000
     38 C           4.2596    5.6192   11.8726 C.3     1  UNL1        0.0000
     39 H           4.1626    6.6742   11.6388 H       1  UNL1        0.0000
     40 H           3.3791    5.3304   12.4376 H       1  UNL1        0.0000
     41 H           5.1168    5.5089   12.5298 H       1  UNL1        0.0000
@<TRIPOS>BOND
     1    19    18    1
     2    23    22    1
     3    25    22    1
     4    21    18    1
     5    18    20    1
     6    18     4    1
     7    22    24    1
     8    22     4    1
     9     1     2    1
    10    15    14    1
    11     4     2    1
    12     4    26    1
    13    17    14    1
    14    14    16    1
    15    14     3    1
    16    37    34    1
    17    27    26    1
    18     2     3    1
    19     2     5    1
    20    26    29    1
    21    26    28    1
    22    36    34    1
    23    34    35    1
    24    34     5    1
    25     3    10    1
    26     3     6    1
    27    12    10    1
    28    32    30    1
    29     5    30    1
    30     5    38    1
    31    10    11    1
    32    10    13    1
    33     7     6    1
    34    30    31    1
    35    30    33    1
    36     6     8    1
    37     6     9    1
    38    39    38    1
    39    38    40    1
    40    38    41    1
    41     2    26    0
    42     2    10    0
