@<TRIPOS>MOLECULE
2,3,6,17
 64 66 0 0 0
SMALL
GASTEIGER

@<TRIPOS>ATOM
      1 SI          3.1124    0.7972    3.8453 Si      1  UNL1        0.0000
      2 O           3.3430    4.3086    3.6408 O.3     1  UNL1        0.0000
      3 O           3.9523    6.4744    6.0914 O.3     1  UNL1        0.0000
      4 O           1.7883    1.7418    4.1077 O.3     1  UNL1        0.0000
      5 N           2.3630    6.7173    3.4894 N.ar    1  UNL1        0.0000
      6 N           1.9171    4.9777    5.5939 N.3     1  UNL1        0.0000
      7 N           0.2670    2.9634    7.1314 N.ar    1  UNL1        0.0000
      8 C           2.0669    7.9782    3.2255 C.ar    1  UNL1        0.0000
      9 H           2.7114    8.7190    3.6822 H       1  UNL1        0.0000
     10 C           1.0027    8.3497    2.4184 C.ar    1  UNL1        0.0000
     11 H           0.7980    9.3909    2.2244 H       1  UNL1        0.0000
     12 C           0.2153    7.3500    1.8666 C.ar    1  UNL1        0.0000
     13 H          -0.6209    7.5971    1.2285 H       1  UNL1        0.0000
     14 C           0.5197    6.0286    2.1455 C.ar    1  UNL1        0.0000
     15 H          -0.0670    5.2199    1.7367 H       1  UNL1        0.0000
     16 C           1.6106    5.7572    2.9648 C.ar    1  UNL1        0.0000
     17 C           2.0134    4.3541    3.3712 C.3     1  UNL1        0.0000
     18 H           1.7295    3.6205    2.5984 H       1  UNL1        0.0000
     19 C           1.2934    4.0489    4.7137 C.3     1  UNL1        0.0000
     20 H           0.2008    4.1806    4.6379 H       1  UNL1        0.0000
     21 C           1.6400    2.6076    5.1849 C.3     1  UNL1        0.0000
     22 H           2.5876    2.6968    5.7366 H       1  UNL1        0.0000
     23 C           0.5807    2.1276    6.1476 C.ar    1  UNL1        0.0000
     24 C          -0.0261    0.8837    6.0096 C.ar    1  UNL1        0.0000
     25 H           0.2469    0.2462    5.1858 H       1  UNL1        0.0000
     26 C          -0.9742    0.4986    6.9419 C.ar    1  UNL1        0.0000
     27 H          -1.4609   -0.4631    6.8617 H       1  UNL1        0.0000
     28 C          -1.2882    1.3649    7.9773 C.ar    1  UNL1        0.0000
     29 H          -2.0174    1.1022    8.7276 H       1  UNL1        0.0000
     30 C          -0.6371    2.5880    8.0173 C.ar    1  UNL1        0.0000
     31 H          -0.8460    3.3098    8.7968 H       1  UNL1        0.0000
     32 C           1.2482    5.7137    6.3875 C.3     1  UNL1        0.0000
     33 H           0.1604    5.5979    6.4701 H       1  UNL1        0.0000
     34 C           1.8609    6.7255    7.1954 C.ar    1  UNL1        0.0000
     35 C           1.1187    7.4166    8.1601 C.ar    1  UNL1        0.0000
     36 H           0.0807    7.1487    8.3009 H       1  UNL1        0.0000
     37 C           1.6896    8.4069    8.9243 C.ar    1  UNL1        0.0000
     38 H           1.1086    8.9271    9.6702 H       1  UNL1        0.0000
     39 C           3.0303    8.7363    8.7276 C.ar    1  UNL1        0.0000
     40 H           3.4818    9.5142    9.3264 H       1  UNL1        0.0000
     41 C           3.7829    8.0856    7.7802 C.ar    1  UNL1        0.0000
     42 H           4.8221    8.3380    7.6229 H       1  UNL1        0.0000
     43 C           3.2308    7.0561    6.9852 C.ar    1  UNL1        0.0000
     44 C           3.3596   -0.3681    5.3447 C.3     1  UNL1        0.0000
     45 H           3.5833    0.2184    6.2322 H       1  UNL1        0.0000
     46 H           4.1869   -1.0532    5.1931 H       1  UNL1        0.0000
     47 H           2.4778   -0.9635    5.5634 H       1  UNL1        0.0000
     48 C           4.7544    1.7127    3.5760 C.3     1  UNL1        0.0000
     49 H           4.9345    2.3870    4.4147 H       1  UNL1        0.0000
     50 H           4.7354    2.3292    2.6813 H       1  UNL1        0.0000
     51 H           5.5956    1.0301    3.5016 H       1  UNL1        0.0000
     52 C           2.5464   -0.1625    2.2711 C.3     1  UNL1        0.0000
     53 C           1.2712   -0.9666    2.5325 C.3     1  UNL1        0.0000
     54 H           0.9697   -1.5043    1.6333 H       1  UNL1        0.0000
     55 H           0.4587   -0.3049    2.8215 H       1  UNL1        0.0000
     56 H           1.4299   -1.6946    3.3244 H       1  UNL1        0.0000
     57 C           2.2769    0.8026    1.1146 C.3     1  UNL1        0.0000
     58 H           1.9793    0.2538    0.2206 H       1  UNL1        0.0000
     59 H           3.1656    1.3827    0.8792 H       1  UNL1        0.0000
     60 H           1.4765    1.4901    1.3770 H       1  UNL1        0.0000
     61 C           3.6522   -1.1301    1.8532 C.3     1  UNL1        0.0000
     62 H           3.3579   -1.6887    0.9648 H       1  UNL1        0.0000
     63 H           3.8601   -1.8406    2.6486 H       1  UNL1        0.0000
     64 H           4.5690   -0.5922    1.6294 H       1  UNL1        0.0000
@<TRIPOS>BOND
     1    58    57    1
     2    59    57    1
     3    62    61    1
     4    57    60    1
     5    57    52    1
     6    13    12    1
     7    64    61    1
     8    54    53    1
     9    15    14    1
    10    61    52    1
    11    61    63    1
    12    12    14   ar
    13    12    10   ar
    14    14    16   ar
    15    11    10    1
    16    52    53    1
    17    52     1    1
    18    10     8   ar
    19    53    55    1
    20    53    56    1
    21    18    17    1
    22    50    48    1
    23    16    17    1
    24    16     5   ar
    25     8     5   ar
    26     8     9    1
    27    17     2    1
    28    17    19    1
    29    51    48    1
    30    48     1    1
    31    48    49    1
    32     1     4    1
    33     1    44    1
    34     4    21    1
    35    20    19    1
    36    19    21    1
    37    19     6    1
    38    21    22    1
    39    21    23    1
    40    25    24    1
    41    46    44    1
    42    44    47    1
    43    44    45    1
    44     6    32    1
    45    24    23   ar
    46    24    26   ar
    47     3    43    1
    48    23     7   ar
    49    32    33    1
    50    32    34    1
    51    27    26    1
    52    26    28   ar
    53    43    34   ar
    54    43    41   ar
    55     7    30   ar
    56    34    35   ar
    57    42    41    1
    58    41    39   ar
    59    28    30   ar
    60    28    29    1
    61    30    31    1
    62    35    36    1
    63    35    37   ar
    64    39    37   ar
    65    39    40    1
    66    37    38    1
