@<TRIPOS>MOLECULE
2,4,8,9
 65 65 0 0 0
SMALL
GASTEIGER

@<TRIPOS>ATOM
      1 SI         -3.3106   18.0503   14.5540 Si      1  UNL1        0.0000
      2 SI         -4.1481   16.2919   13.2216 Si      1  UNL1        0.0000
      3 SI         -4.5642   14.1616   14.1967 Si      1  UNL1        0.0000
      4 SI         -2.9613   12.4272   13.9000 Si      1  UNL1        0.0000
      5 SI         -1.1395   12.3088   15.3953 Si      1  UNL1        0.0000
      6 SI         -3.7879   10.3548   13.1217 Si      1  UNL1        0.0000
      7 SI         -5.6430   17.0339   11.5236 Si      1  UNL1        0.0000
      8 O          -2.8016   15.9736   12.3850 O.3     1  UNL1        0.0000
      9 O          -2.2118   12.9359   12.5632 O.3     1  UNL1        0.0000
     10 C          -1.5917   17.5891   15.2725 C.3     1  UNL1        0.0000
     11 H          -0.9995   18.4560   15.5556 H       1  UNL1        0.0000
     12 H          -1.0238   17.0359   14.5261 H       1  UNL1        0.0000
     13 H          -1.6815   16.9554   16.1498 H       1  UNL1        0.0000
     14 C          -4.4586   18.5502   15.9982 C.3     1  UNL1        0.0000
     15 H          -4.6557   17.7157   16.6622 H       1  UNL1        0.0000
     16 H          -5.4145   18.9082   15.6318 H       1  UNL1        0.0000
     17 H          -4.0185   19.3444   16.5915 H       1  UNL1        0.0000
     18 C          -3.0000   19.6510   13.5236 C.3     1  UNL1        0.0000
     19 H          -2.5963   20.4558   14.1330 H       1  UNL1        0.0000
     20 H          -3.9162   20.0164   13.0693 H       1  UNL1        0.0000
     21 H          -2.2907   19.4628   12.7213 H       1  UNL1        0.0000
     22 C          -5.0163   14.3547   16.0629 C.3     1  UNL1        0.0000
     23 H          -5.8683   15.0151   16.1787 H       1  UNL1        0.0000
     24 H          -4.2045   14.7618   16.6563 H       1  UNL1        0.0000
     25 H          -5.2896   13.3981   16.4942 H       1  UNL1        0.0000
     26 C          -6.2130   13.4878   13.4352 C.3     1  UNL1        0.0000
     27 H          -6.4999   12.5437   13.8900 H       1  UNL1        0.0000
     28 H          -6.1151   13.3216   12.3658 H       1  UNL1        0.0000
     29 H          -7.0356   14.1808   13.5886 H       1  UNL1        0.0000
     30 C          -0.7496   14.0145   16.1755 C.3     1  UNL1        0.0000
     31 H           0.1287   13.9881   16.8154 H       1  UNL1        0.0000
     32 H          -1.5796   14.3791   16.7747 H       1  UNL1        0.0000
     33 H          -0.5590   14.7422   15.3909 H       1  UNL1        0.0000
     34 C           0.4402   11.7843   14.4362 C.3     1  UNL1        0.0000
     35 H           0.6032   12.4974   13.6305 H       1  UNL1        0.0000
     36 H           0.3326   10.7956   13.9975 H       1  UNL1        0.0000
     37 H           1.3356   11.7775   15.0529 H       1  UNL1        0.0000
     38 C          -1.4028   11.0625   16.8242 C.3     1  UNL1        0.0000
     39 H          -1.5780   10.0564   16.4588 H       1  UNL1        0.0000
     40 H          -2.2588   11.3440   17.4275 H       1  UNL1        0.0000
     41 H          -0.5399   11.0279   17.4804 H       1  UNL1        0.0000
     42 C          -4.9561    9.4634   14.3460 C.3     1  UNL1        0.0000
     43 H          -5.8474   10.0473   14.5485 H       1  UNL1        0.0000
     44 H          -4.4651    9.2793   15.2955 H       1  UNL1        0.0000
     45 H          -5.2767    8.5045   13.9528 H       1  UNL1        0.0000
     46 C          -4.7205   10.5529   11.4494 C.3     1  UNL1        0.0000
     47 H          -4.5521    9.7251   10.7645 H       1  UNL1        0.0000
     48 H          -4.4050   11.4641   10.9447 H       1  UNL1        0.0000
     49 H          -5.7924   10.6318   11.6050 H       1  UNL1        0.0000
     50 C          -2.3428    9.1171   12.7921 C.3     1  UNL1        0.0000
     51 H          -2.6634    8.2362   12.2413 H       1  UNL1        0.0000
     52 H          -1.9112    8.7754   13.7285 H       1  UNL1        0.0000
     53 H          -1.5458    9.5895   12.2243 H       1  UNL1        0.0000
     54 C          -6.8052   15.7898   10.6414 C.3     1  UNL1        0.0000
     55 H          -7.3507   16.2658    9.8297 H       1  UNL1        0.0000
     56 H          -7.5404   15.3757   11.3243 H       1  UNL1        0.0000
     57 H          -6.2393   14.9655   10.2180 H       1  UNL1        0.0000
     58 C          -6.7786   18.4561   12.1333 C.3     1  UNL1        0.0000
     59 H          -6.2231   19.2513   12.6185 H       1  UNL1        0.0000
     60 H          -7.5014   18.0826   12.8505 H       1  UNL1        0.0000
     61 H          -7.3361   18.8967   11.3133 H       1  UNL1        0.0000
     62 C          -4.5137   17.7467   10.1381 C.3     1  UNL1        0.0000
     63 H          -5.0408   17.9861    9.2184 H       1  UNL1        0.0000
     64 H          -3.7714   16.9843    9.9101 H       1  UNL1        0.0000
     65 H          -3.9917   18.6403   10.4703 H       1  UNL1        0.0000
@<TRIPOS>BOND
     1    63    62    1
     2    55    54    1
     3    64    62    1
     4    62    65    1
     5    62     7    1
     6    57    54    1
     7    54    56    1
     8    54     7    1
     9    47    46    1
    10    48    46    1
    11    61    58    1
    12    46    49    1
    13    46     6    1
    14     7    58    1
    15     7     2    1
    16    58    59    1
    17    58    60    1
    18    53    50    1
    19    51    50    1
    20    28    26    1
    21     8     2    1
    22     9     4    1
    23    21    18    1
    24    50     6    1
    25    50    52    1
    26    20    18    1
    27     6     4    1
    28     6    42    1
    29     2     3    1
    30     2     1    1
    31    26    29    1
    32    26    27    1
    33    26     3    1
    34    18    19    1
    35    18     1    1
    36    35    34    1
    37     4     3    1
    38     4     5    1
    39    45    42    1
    40    36    34    1
    41     3    22    1
    42    42    43    1
    43    42    44    1
    44    34    37    1
    45    34     5    1
    46    12    10    1
    47     1    10    1
    48     1    14    1
    49    10    11    1
    50    10    13    1
    51    33    30    1
    52     5    30    1
    53     5    38    1
    54    16    14    1
    55    14    17    1
    56    14    15    1
    57    22    23    1
    58    22    25    1
    59    22    24    1
    60    30    32    1
    61    30    31    1
    62    39    38    1
    63    38    40    1
    64    38    41    1
    65     2    62    0
