@<TRIPOS>MOLECULE
1,2,3,4
 124 129 0 0 0
SMALL
GASTEIGER

@<TRIPOS>ATOM
      1 P          10.6952    6.5530    4.9695 P.3     1  UNL1       -0.1049
      2 P          10.6723    3.7219    4.4614 P.3     1  UNL1       -0.0992
      3 P           7.9275    6.3121    5.7127 P.3     1  UNL1       -0.0992
      4 P           9.8158    6.8983    2.2579 P.3     1  UNL1       -0.0992
      5 C          12.0152    5.6438    5.8948 C.3     1  UNL1       -0.0283
      6 H          12.9127    6.2630    6.0136 H       1  UNL1        0.0316
      7 H          11.6177    5.4087    6.8870 H       1  UNL1        0.0316
      8 C          12.2827    4.3811    5.1053 C.3     1  UNL1       -0.0279
      9 H          12.8120    3.6234    5.6906 H       1  UNL1        0.0317
     10 H          12.8852    4.6220    4.2214 H       1  UNL1        0.0317
     11 C          10.2015    7.7332    6.3049 C.3     1  UNL1       -0.0283
     12 H          11.0345    7.9209    6.9934 H       1  UNL1        0.0316
     13 H           9.9239    8.6770    5.8260 H       1  UNL1        0.0316
     14 C           9.0122    7.1018    6.9932 C.3     1  UNL1       -0.0279
     15 H           8.4482    7.8171    7.5990 H       1  UNL1        0.0317
     16 H           9.3552    6.2875    7.6425 H       1  UNL1        0.0317
     17 C          11.7765    7.6995    3.9994 C.3     1  UNL1       -0.0283
     18 H          12.1976    8.4829    4.6412 H       1  UNL1        0.0316
     19 H          12.5980    7.1082    3.5843 H       1  UNL1        0.0316
     20 C          10.8986    8.2596    2.9006 C.3     1  UNL1       -0.0279
     21 H          11.4763    8.7189    2.0928 H       1  UNL1        0.0317
     22 H          10.2231    9.0152    3.3189 H       1  UNL1        0.0317
     23 C          10.2152    2.4307    5.7459 C.3     1  UNL1       -0.0202
     24 H          10.8466    1.5483    5.5865 H       1  UNL1        0.0349
     25 C           8.7504    2.0608    5.5316 C.3     1  UNL1       -0.0463
     26 H           8.1488    2.9685    5.6411 H       1  UNL1        0.0271
     27 H           8.5823    1.7065    4.5148 H       1  UNL1        0.0271
     28 C           8.3003    0.9909    6.5210 C.3     1  UNL1       -0.0525
     29 H           7.2477    0.7575    6.3500 H       1  UNL1        0.0265
     30 H           8.8714    0.0748    6.3454 H       1  UNL1        0.0265
     31 C           8.5180    1.4488    7.9592 C.3     1  UNL1       -0.0530
     32 H           7.8836    2.3128    8.1675 H       1  UNL1        0.0265
     33 H           8.2359    0.6543    8.6543 H       1  UNL1        0.0265
     34 C           9.9756    1.8369    8.1762 C.3     1  UNL1       -0.0525
     35 H          10.6076    0.9542    8.0472 H       1  UNL1        0.0265
     36 H          10.1185    2.2002    9.1976 H       1  UNL1        0.0265
     37 C          10.4114    2.9116    7.1822 C.3     1  UNL1       -0.0463
     38 H          11.4604    3.1507    7.3709 H       1  UNL1        0.0271
     39 H           9.8201    3.8207    7.3341 H       1  UNL1        0.0271
     40 C          11.3891    2.6053    3.1292 C.3     1  UNL1       -0.0202
     41 H          11.7539    3.3318    2.3871 H       1  UNL1        0.0349
     42 C          10.2924    1.7692    2.4778 C.3     1  UNL1       -0.0463
     43 H           9.4327    2.4112    2.2577 H       1  UNL1        0.0271
     44 H           9.9667    0.9925    3.1725 H       1  UNL1        0.0271
     45 C          10.8062    1.0841    1.2147 C.3     1  UNL1       -0.0525
     46 H          10.0125    0.4769    0.7741 H       1  UNL1        0.0265
     47 H          11.0998    1.8318    0.4767 H       1  UNL1        0.0265
     48 C          12.0037    0.1996    1.5500 C.3     1  UNL1       -0.0530
     49 H          11.6828   -0.6032    2.2183 H       1  UNL1        0.0265
     50 H          12.3979   -0.2603    0.6411 H       1  UNL1        0.0265
     51 C          13.0969    1.0152    2.2333 C.3     1  UNL1       -0.0525
     52 H          13.4713    1.7734    1.5405 H       1  UNL1        0.0265
     53 H          13.9355    0.3655    2.4957 H       1  UNL1        0.0265
     54 C          12.5660    1.6977    3.4953 C.3     1  UNL1       -0.0463
     55 H          13.3761    2.2643    3.9574 H       1  UNL1        0.0271
     56 H          12.2485    0.9254    4.1985 H       1  UNL1        0.0271
     57 C           6.9422    5.2128    6.8823 C.3     1  UNL1       -0.0202
     58 H           7.6711    4.4294    7.1376 H       1  UNL1        0.0349
     59 C           6.4443    5.8203    8.1966 C.3     1  UNL1       -0.0463
     60 H           7.2577    6.2910    8.7503 H       1  UNL1        0.0271
     61 H           5.6833    6.5793    8.0037 H       1  UNL1        0.0271
     62 C           5.8285    4.7249    9.0685 C.3     1  UNL1       -0.0525
     63 H           6.5945    3.9862    9.3179 H       1  UNL1        0.0265
     64 H           5.4736    5.1617   10.0053 H       1  UNL1        0.0265
     65 C           4.6749    4.0355    8.3481 C.3     1  UNL1       -0.0530
     66 H           3.8784    4.7619    8.1674 H       1  UNL1        0.0265
     67 H           4.2653    3.2423    8.9773 H       1  UNL1        0.0265
     68 C           5.1433    3.4577    7.0157 C.3     1  UNL1       -0.0525
     69 H           4.2923    3.0191    6.4902 H       1  UNL1        0.0265
     70 H           5.8675    2.6614    7.1914 H       1  UNL1        0.0265
     71 C           5.7728    4.5522    6.1578 C.3     1  UNL1       -0.0463
     72 H           5.0048    5.3022    5.9556 H       1  UNL1        0.0271
     73 H           6.1260    4.1460    5.2033 H       1  UNL1        0.0271
     74 C           6.6478    7.6550    5.4019 C.3     1  UNL1       -0.0202
     75 H           5.9537    7.6683    6.2512 H       1  UNL1        0.0349
     76 C           7.2497    9.0501    5.2496 C.3     1  UNL1       -0.0463
     77 H           7.7662    9.3518    6.1633 H       1  UNL1        0.0271
     78 H           7.9785    9.0332    4.4325 H       1  UNL1        0.0271
     79 C           6.1608   10.0792    4.9511 C.3     1  UNL1       -0.0525
     80 H           5.4692   10.1228    5.7969 H       1  UNL1        0.0265
     81 H           6.6107   11.0694    4.8401 H       1  UNL1        0.0265
     82 C           5.3902    9.7121    3.6888 C.3     1  UNL1       -0.0530
     83 H           6.0679    9.7472    2.8330 H       1  UNL1        0.0265
     84 H           4.5942   10.4394    3.5123 H       1  UNL1        0.0265
     85 C           4.8037    8.3104    3.8185 C.3     1  UNL1       -0.0525
     86 H           4.0655    8.3052    4.6258 H       1  UNL1        0.0265
     87 H           4.2852    8.0317    2.8983 H       1  UNL1        0.0265
     88 C           5.8958    7.2907    4.1259 C.3     1  UNL1       -0.0463
     89 H           6.6207    7.2377    3.3084 H       1  UNL1        0.0271
     90 H           5.4588    6.2969    4.2082 H       1  UNL1        0.0271
     91 C           8.5400    7.9745    1.3920 C.3     1  UNL1       -0.0202
     92 H           8.0102    8.4288    2.2431 H       1  UNL1        0.0349
     93 C           9.0280    9.1171    0.4984 C.3     1  UNL1       -0.0463
     94 H           9.7415    9.7542    1.0238 H       1  UNL1        0.0271
     95 H           9.5184    8.7231   -0.3939 H       1  UNL1        0.0271
     96 C           7.8336    9.9660    0.0586 C.3     1  UNL1       -0.0525
     97 H           7.3648   10.4160    0.9375 H       1  UNL1        0.0265
     98 H           8.1814   10.7799   -0.5824 H       1  UNL1        0.0265
     99 C           6.8049    9.1227   -0.6890 C.3     1  UNL1       -0.0530
    100 H           7.2545    8.7388   -1.6082 H       1  UNL1        0.0265
    101 H           5.9514    9.7436   -0.9700 H       1  UNL1        0.0265
    102 C           6.3413    7.9516    0.1732 C.3     1  UNL1       -0.0525
    103 H           5.6479    7.3253   -0.3925 H       1  UNL1        0.0265
    104 H           5.8089    8.3298    1.0466 H       1  UNL1        0.0265
    105 C           7.5426    7.1205    0.6143 C.3     1  UNL1       -0.0463
    106 H           7.2287    6.2734    1.2338 H       1  UNL1        0.0271
    107 H           8.0261    6.7314   -0.2841 H       1  UNL1        0.0271
    108 C          10.7972    6.3087    0.7651 C.3     1  UNL1       -0.0202
    109 H          10.6811    7.0532   -0.0318 H       1  UNL1        0.0349
    110 C          12.2884    6.1290    1.0412 C.3     1  UNL1       -0.0463
    111 H          12.7474    7.0779    1.3264 H       1  UNL1        0.0271
    112 H          12.4127    5.4239    1.8696 H       1  UNL1        0.0271
    113 C          13.0083    5.6027   -0.1994 C.3     1  UNL1       -0.0525
    114 H          12.9211    6.3396   -1.0024 H       1  UNL1        0.0265
    115 H          14.0719    5.4753    0.0190 H       1  UNL1        0.0265
    116 C          12.4092    4.2804   -0.6623 C.3     1  UNL1       -0.0530
    117 H          12.9141    3.9384   -1.5690 H       1  UNL1        0.0265
    118 H          12.5679    3.5256    0.1110 H       1  UNL1        0.0265
    119 C          10.9150    4.4415   -0.9205 C.3     1  UNL1       -0.0525
    120 H          10.4779    3.4844   -1.2140 H       1  UNL1        0.0265
    121 H          10.7688    5.1378   -1.7513 H       1  UNL1        0.0265
    122 C          10.2042    4.9770    0.3185 C.3     1  UNL1       -0.0463
    123 H          10.2899    4.2726    1.1508 H       1  UNL1        0.0271
    124 H           9.1399    5.0824    0.1158 H       1  UNL1        0.0271
@<TRIPOS>BOND
     1   121   119    1
     2   100    99    1
     3   117   116    1
     4   120   119    1
     5   114   113    1
     6   101    99    1
     7   119   116    1
     8   119   122    1
     9    99    96    1
    10    99   102    1
    11   116   113    1
    12   116   118    1
    13    98    96    1
    14    95    93    1
    15   103   102    1
    16   107   105    1
    17   113   115    1
    18   113   110    1
    19   109   108    1
    20    96    93    1
    21    96    97    1
    22   124   122    1
    23   102   105    1
    24   102   104    1
    25   122   108    1
    26   122   123    1
    27    47    45    1
    28    93    94    1
    29    93    91    1
    30   105   106    1
    31   105    91    1
    32    50    48    1
    33   108   110    1
    34   108     4    1
    35    46    45    1
    36   110   111    1
    37   110   112    1
    38    45    48    1
    39    45    42    1
    40    91    92    1
    41    91     4    1
    42    52    51    1
    43    48    49    1
    44    48    51    1
    45    21    20    1
    46    51    53    1
    47    51    54    1
    48    43    42    1
    49     4    20    1
    50    41    40    1
    51    42    40    1
    52    42    44    1
    53    83    82    1
    54    87    85    1
    55    20    22    1
    56    20    17    1
    57    40    54    1
    58    40     2    1
    59    89    88    1
    60    54    55    1
    61    54    56    1
    62    84    82    1
    63    19    17    1
    64    82    85    1
    65    82    79    1
    66    85    88    1
    67    85    86    1
    68    17    18    1
    69    17     1    1
    70    88    90    1
    71    88    74    1
    72    10     8    1
    73    78    76    1
    74     2     8    1
    75     2    23    1
    76    27    25    1
    77    81    79    1
    78    79    76    1
    79    79    80    1
    80     1     5    1
    81     1    11    1
    82     8     9    1
    83     8     5    1
    84    73    71    1
    85    76    74    1
    86    76    77    1
    87    74     3    1
    88    74    75    1
    89    25    26    1
    90    25    23    1
    91    25    28    1
    92    24    23    1
    93     3    57    1
    94     3    14    1
    95    23    37    1
    96    13    11    1
    97     5     6    1
    98     5     7    1
    99    72    71    1
   100    71    57    1
   101    71    68    1
   102    11    14    1
   103    11    12    1
   104    30    28    1
   105    29    28    1
   106    69    68    1
   107    28    31    1
   108    57    58    1
   109    57    59    1
   110    14    15    1
   111    14    16    1
   112    68    70    1
   113    68    65    1
   114    37    39    1
   115    37    38    1
   116    37    34    1
   117    31    32    1
   118    31    34    1
   119    31    33    1
   120    61    59    1
   121    35    34    1
   122    66    65    1
   123    34    36    1
   124    59    60    1
   125    59    62    1
   126    65    67    1
   127    65    62    1
   128    62    63    1
   129    62    64    1
