@<TRIPOS>MOLECULE
1,2,3,4
 127 136 0 0 0
SMALL
GASTEIGER

@<TRIPOS>ATOM
      1 P           7.0232    3.1886    2.4204 P.3     1  UNL1        0.0000
      2 P           5.7935    5.4292    3.2392 P.3     1  UNL1        0.0000
      3 P           6.6185    4.8070    5.6252 P.3     1  UNL1        0.0000
      4 P           4.2493    3.5856    5.9167 P.3     1  UNL1        0.0000
      5 SI          8.4983    6.8357    4.6365 Si      1  UNL1        0.0000
      6 SI          5.3870    7.8289    4.8781 Si      1  UNL1        0.0000
      7 N           7.0303    4.8604    2.0710 N.3     1  UNL1        0.0000
      8 N           5.1749    4.7949    6.6911 N.3     1  UNL1        0.0000
      9 C           6.6291    6.3845    4.6180 C.3     1  UNL1        0.0000
     10 C           9.6176    5.4950    3.8736 C.3     1  UNL1        0.0000
     11 H           9.4317    5.3309    2.8197 H       1  UNL1        0.0000
     12 H           9.4527    4.5478    4.3799 H       1  UNL1        0.0000
     13 H          10.6654    5.7562    3.9928 H       1  UNL1        0.0000
     14 C           8.8818    8.5639    3.9095 C.3     1  UNL1        0.0000
     15 H           9.9256    8.6131    3.6172 H       1  UNL1        0.0000
     16 H           8.7229    9.3271    4.6628 H       1  UNL1        0.0000
     17 H           8.2869    8.8285    3.0455 H       1  UNL1        0.0000
     18 C           9.1568    6.9343    6.4345 C.3     1  UNL1        0.0000
     19 H          10.2238    7.1347    6.4106 H       1  UNL1        0.0000
     20 H           9.0165    6.0000    6.9706 H       1  UNL1        0.0000
     21 H           8.6994    7.7308    7.0112 H       1  UNL1        0.0000
     22 C           5.1197    8.7877    3.2408 C.3     1  UNL1        0.0000
     23 H           4.7363    8.1473    2.4519 H       1  UNL1        0.0000
     24 H           6.0228    9.2695    2.8833 H       1  UNL1        0.0000
     25 H           4.3860    9.5711    3.4050 H       1  UNL1        0.0000
     26 C           5.9811    9.1647    6.1162 C.3     1  UNL1        0.0000
     27 H           5.1442    9.5408    6.6954 H       1  UNL1        0.0000
     28 H           6.3976   10.0071    5.5753 H       1  UNL1        0.0000
     29 H           6.7340    8.8190    6.8124 H       1  UNL1        0.0000
     30 C           3.6271    7.2363    5.3053 C.3     1  UNL1        0.0000
     31 H           2.9220    8.0618    5.2677 H       1  UNL1        0.0000
     32 H           3.5582    6.7835    6.2864 H       1  UNL1        0.0000
     33 H           3.3035    6.4911    4.5837 H       1  UNL1        0.0000
     34 C           6.4104    2.2507    0.9812 C.ar    1  UNL1        0.0000
     35 C           7.1597    1.3526    0.2334 C.ar    1  UNL1        0.0000
     36 H           8.2078    1.2026    0.4497 H       1  UNL1        0.0000
     37 C           6.5565    0.6324   -0.7845 C.ar    1  UNL1        0.0000
     38 H           7.1439   -0.0643   -1.3653 H       1  UNL1        0.0000
     39 C           5.2072    0.7894   -1.0494 C.ar    1  UNL1        0.0000
     40 H           4.7422    0.2187   -1.8399 H       1  UNL1        0.0000
     41 C           4.4474    1.6609   -0.2837 C.ar    1  UNL1        0.0000
     42 H           3.3884    1.7643   -0.4701 H       1  UNL1        0.0000
     43 C           5.0460    2.3804    0.7304 C.ar    1  UNL1        0.0000
     44 H           4.4580    3.0393    1.3625 H       1  UNL1        0.0000
     45 C           8.7124    2.5366    2.7023 C.ar    1  UNL1        0.0000
     46 C           9.8043    2.5530    1.8410 C.ar    1  UNL1        0.0000
     47 H           9.7356    3.0195    0.8716 H       1  UNL1        0.0000
     48 C          10.9995    1.9669    2.2205 C.ar    1  UNL1        0.0000
     49 H          11.8418    1.9892    1.5435 H       1  UNL1        0.0000
     50 C          11.1205    1.3501    3.4544 C.ar    1  UNL1        0.0000
     51 H          12.0572    0.8950    3.7414 H       1  UNL1        0.0000
     52 C          10.0357    1.3153    4.3141 C.ar    1  UNL1        0.0000
     53 H          10.1202    0.8294    5.2751 H       1  UNL1        0.0000
     54 C           8.8432    1.9042    3.9379 C.ar    1  UNL1        0.0000
     55 H           7.9836    1.8764    4.6030 H       1  UNL1        0.0000
     56 C           4.0413    2.1477    7.0202 C.ar    1  UNL1        0.0000
     57 C           5.1737    1.3521    7.1794 C.ar    1  UNL1        0.0000
     58 H           6.0920    1.6424    6.6784 H       1  UNL1        0.0000
     59 C           5.1201    0.1999    7.9375 C.ar    1  UNL1        0.0000
     60 H           6.0012   -0.4141    8.0537 H       1  UNL1        0.0000
     61 C           3.9260   -0.1762    8.5336 C.ar    1  UNL1        0.0000
     62 H           3.8774   -1.0803    9.1227 H       1  UNL1        0.0000
     63 C           2.7904    0.5949    8.3551 C.ar    1  UNL1        0.0000
     64 H           1.8546    0.2906    8.8017 H       1  UNL1        0.0000
     65 C           2.8409    1.7507    7.5938 C.ar    1  UNL1        0.0000
     66 H           1.9433    2.3328    7.4398 H       1  UNL1        0.0000
     67 C           2.5314    4.1280    5.5828 C.ar    1  UNL1        0.0000
     68 C           2.1614    3.9322    4.2527 C.ar    1  UNL1        0.0000
     69 H           2.8949    3.5243    3.5619 H       1  UNL1        0.0000
     70 C           0.8870    4.2403    3.8156 C.ar    1  UNL1        0.0000
     71 H           0.6163    4.0823    2.7818 H       1  UNL1        0.0000
     72 C          -0.0407    4.7516    4.7075 C.ar    1  UNL1        0.0000
     73 H          -1.0381    4.9977    4.3736 H       1  UNL1        0.0000
     74 C           0.3133    4.9429    6.0327 C.ar    1  UNL1        0.0000
     75 H          -0.4104    5.3353    6.7330 H       1  UNL1        0.0000
     76 C           1.5879    4.6303    6.4724 C.ar    1  UNL1        0.0000
     77 H           1.8354    4.7818    7.5108 H       1  UNL1        0.0000
     78 C           7.1407    5.5626    0.7858 C.3     1  UNL1        0.0000
     79 C           8.2029    4.9319   -0.1089 C.3     1  UNL1        0.0000
     80 H           7.9367    3.8931   -0.3191 H       1  UNL1        0.0000
     81 H           9.1638    4.9589    0.4094 H       1  UNL1        0.0000
     82 C           5.8020    5.5736    0.0391 C.3     1  UNL1        0.0000
     83 H           5.5043    4.5488   -0.1870 H       1  UNL1        0.0000
     84 H           5.0405    6.0140    0.6907 H       1  UNL1        0.0000
     85 C           7.5534    7.0042    1.0769 C.3     1  UNL1        0.0000
     86 H           8.5121    7.0036    1.5951 H       1  UNL1        0.0000
     87 H           6.8082    7.4454    1.7395 H       1  UNL1        0.0000
     88 C           7.6673    7.8018   -0.2202 C.3     1  UNL1        0.0000
     89 H           7.9634    8.8307    0.0147 H       1  UNL1        0.0000
     90 C           6.3236    7.8084   -0.9446 C.3     1  UNL1        0.0000
     91 H           5.5648    8.2800   -0.3165 H       1  UNL1        0.0000
     92 H           6.4001    8.3846   -1.8694 H       1  UNL1        0.0000
     93 C           5.9192    6.3696   -1.2572 C.3     1  UNL1        0.0000
     94 H           4.9520    6.3634   -1.7722 H       1  UNL1        0.0000
     95 C           6.9741    5.7130   -2.1458 C.3     1  UNL1        0.0000
     96 H           7.0622    6.2574   -3.0887 H       1  UNL1        0.0000
     97 H           6.6781    4.6866   -2.3759 H       1  UNL1        0.0000
     98 C           8.3160    5.7174   -1.4170 C.3     1  UNL1        0.0000
     99 H           9.0767    5.2455   -2.0499 H       1  UNL1        0.0000
    100 C           8.7265    7.1576   -1.1135 C.3     1  UNL1        0.0000
    101 H           9.6963    7.1721   -0.6108 H       1  UNL1        0.0000
    102 H           8.8231    7.7200   -2.0447 H       1  UNL1        0.0000
    103 C           5.3803    5.0610    8.1208 C.3     1  UNL1        0.0000
    104 C           4.0693    4.9977    8.8983 C.3     1  UNL1        0.0000
    105 H           3.6331    4.0005    8.8049 H       1  UNL1        0.0000
    106 H           3.3763    5.7331    8.4838 H       1  UNL1        0.0000
    107 C           6.3750    4.0704    8.7363 C.3     1  UNL1        0.0000
    108 H           5.9751    3.0585    8.6595 H       1  UNL1        0.0000
    109 H           7.3087    4.1119    8.1662 H       1  UNL1        0.0000
    110 C           5.9480    6.4727    8.2526 C.3     1  UNL1        0.0000
    111 H           5.2404    7.1834    7.8273 H       1  UNL1        0.0000
    112 H           6.8712    6.5255    7.6745 H       1  UNL1        0.0000
    113 C           6.2066    6.8120    9.7187 C.3     1  UNL1        0.0000
    114 H           6.6128    7.8276    9.7864 H       1  UNL1        0.0000
    115 C           7.2043    5.8203   10.3120 C.3     1  UNL1        0.0000
    116 H           8.1523    5.8791    9.7731 H       1  UNL1        0.0000
    117 H           7.3968    6.0647   11.3591 H       1  UNL1        0.0000
    118 C           6.6302    4.4097   10.2017 C.3     1  UNL1        0.0000
    119 H           7.3424    3.6894   10.6195 H       1  UNL1        0.0000
    120 C           5.3101    4.3228   10.9655 C.3     1  UNL1        0.0000
    121 H           5.4727    4.5444   12.0226 H       1  UNL1        0.0000
    122 H           4.9055    3.3103   10.8919 H       1  UNL1        0.0000
    123 C           4.3210    5.3233   10.3718 C.3     1  UNL1        0.0000
    124 H           3.3712    5.2641   10.9158 H       1  UNL1        0.0000
    125 C           4.8907    6.7361   10.4915 C.3     1  UNL1        0.0000
    126 H           4.1799    7.4614   10.0887 H       1  UNL1        0.0000
    127 H           5.0594    6.9804   11.5426 H       1  UNL1        0.0000
@<TRIPOS>BOND
     1    96    95    1
     2    97    95    1
     3    95    98    1
     4    95    93    1
     5    99    98    1
     6   102   100    1
     7    92    90    1
     8    40    39    1
     9    94    93    1
    10    98   100    1
    11    98    79    1
    12    38    37    1
    13    93    90    1
    14    93    82    1
    15   100   101    1
    16   100    88    1
    17    39    37   ar
    18    39    41   ar
    19    90    91    1
    20    90    88    1
    21    37    35   ar
    22    42    41    1
    23    80    79    1
    24    41    43   ar
    25    88    89    1
    26    88    85    1
    27    83    82    1
    28    79    81    1
    29    79    78    1
    30    82    84    1
    31    82    78    1
    32    35    36    1
    33    35    34   ar
    34    43    34   ar
    35    43    44    1
    36    78    85    1
    37    78     7    1
    38    47    46    1
    39    34     1    1
    40    85    86    1
    41    85    87    1
    42    49    48    1
    43    46    48   ar
    44    46    45   ar
    45     7     1    1
    46     7     2    1
    47    48    50   ar
    48     1    45    1
    49    23    22    1
    50    45    54   ar
    51    71    70    1
    52    11    10    1
    53    24    22    1
    54    17    14    1
    55     2     9    1
    56    22    25    1
    57    22     6    1
    58    50    51    1
    59    50    52   ar
    60    69    68    1
    61    15    14    1
    62    70    68   ar
    63    70    72   ar
    64    10    13    1
    65    10    12    1
    66    10     5    1
    67    14     5    1
    68    14    16    1
    69    54    52   ar
    70    54    55    1
    71    68    67   ar
    72    52    53    1
    73    73    72    1
    74    33    30    1
    75     9     5    1
    76     9     6    1
    77     9     3    1
    78     5    18    1
    79    72    74   ar
    80     6    30    1
    81     6    26    1
    82    31    30    1
    83    30    32    1
    84    28    26    1
    85    67     4    1
    86    67    76   ar
    87     3     8    1
    88     4     8    1
    89     4    56    1
    90    74    76   ar
    91    74    75    1
    92    26    27    1
    93    26    29    1
    94    19    18    1
    95    18    20    1
    96    18    21    1
    97    76    77    1
    98    58    57    1
    99     8   103    1
   100    56    57   ar
   101    56    65   ar
   102    57    59   ar
   103    66    65    1
   104    65    63   ar
   105   112   110    1
   106   111   110    1
   107    59    60    1
   108    59    61   ar
   109   103   110    1
   110   103   107    1
   111   103   104    1
   112   109   107    1
   113   110   113    1
   114    63    61   ar
   115    63    64    1
   116   106   104    1
   117    61    62    1
   118   108   107    1
   119   107   118    1
   120   105   104    1
   121   104   123    1
   122   113   114    1
   123   113   115    1
   124   113   125    1
   125   116   115    1
   126   126   125    1
   127   118   115    1
   128   118   119    1
   129   118   120    1
   130   115   117    1
   131   123   125    1
   132   123   124    1
   133   123   120    1
   134   125   127    1
   135   122   120    1
   136   120   121    1
