@<TRIPOS>MOLECULE
1,2,3,4
 103 106 0 0 0
SMALL
GASTEIGER

@<TRIPOS>ATOM
      1 P           4.9886    9.0713    3.4072 P.3     1  UNL1        0.0000
      2 P           4.4573    7.3511    5.3912 P.3     1  UNL1        0.0000
      3 P           7.0219    6.8686    5.4147 P.3     1  UNL1        0.0000
      4 P           6.4516    4.8514    3.7452 P.3     1  UNL1        0.0000
      5 N           4.2356    9.0742    4.9395 N.3     1  UNL1        0.0000
      6 N           7.2406    5.0942    5.2399 N.3     1  UNL1        0.0000
      7 SI          6.5339    8.7443    7.6163 Si      1  UNL1        0.0000
      8 SI          4.9861    5.8790    7.8908 Si      1  UNL1        0.0000
      9 C           5.7466    7.2219    6.7433 C.3     1  UNL1        0.0000
     10 C           5.5995    9.3479    9.1771 C.3     1  UNL1        0.0000
     11 H           5.5389   10.4310    9.1891 H       1  UNL1        0.0000
     12 H           6.1460    9.0525   10.0657 H       1  UNL1        0.0000
     13 H           4.5933    8.9605    9.2682 H       1  UNL1        0.0000
     14 C           6.8547   10.2014    6.4329 C.3     1  UNL1        0.0000
     15 H           7.4465   10.9714    6.9194 H       1  UNL1        0.0000
     16 H           5.9413   10.6593    6.0744 H       1  UNL1        0.0000
     17 H           7.4073    9.8583    5.5628 H       1  UNL1        0.0000
     18 C           8.2839    8.2999    8.2552 C.3     1  UNL1        0.0000
     19 H           8.9488    7.9960    7.4523 H       1  UNL1        0.0000
     20 H           8.2669    7.5146    9.0024 H       1  UNL1        0.0000
     21 H           8.7237    9.1754    8.7231 H       1  UNL1        0.0000
     22 C           4.7320    4.1971    7.0339 C.3     1  UNL1        0.0000
     23 H           4.2234    3.5016    7.6951 H       1  UNL1        0.0000
     24 H           5.6586    3.7385    6.7149 H       1  UNL1        0.0000
     25 H           4.1147    4.3253    6.1492 H       1  UNL1        0.0000
     26 C           5.9034    5.6824    9.5569 C.3     1  UNL1        0.0000
     27 H           5.4927    4.8317   10.0906 H       1  UNL1        0.0000
     28 H           5.7508    6.5575   10.1779 H       1  UNL1        0.0000
     29 H           6.9702    5.5263    9.4665 H       1  UNL1        0.0000
     30 C           3.2015    6.3588    8.4007 C.3     1  UNL1        0.0000
     31 H           2.5626    6.5302    7.5394 H       1  UNL1        0.0000
     32 H           3.1641    7.2388    9.0331 H       1  UNL1        0.0000
     33 H           2.7636    5.5439    8.9688 H       1  UNL1        0.0000
     34 C           3.7602    9.4275    2.1076 C.ar    1  UNL1        0.0000
     35 C           3.7621   10.5572    1.3005 C.ar    1  UNL1        0.0000
     36 H           4.4924   11.3387    1.4572 H       1  UNL1        0.0000
     37 C           2.8329   10.6753    0.2802 C.ar    1  UNL1        0.0000
     38 H           2.8365   11.5562   -0.3455 H       1  UNL1        0.0000
     39 C           1.9135    9.6665    0.0505 C.ar    1  UNL1        0.0000
     40 H           1.1976    9.7617   -0.7527 H       1  UNL1        0.0000
     41 C           1.9256    8.5244    0.8368 C.ar    1  UNL1        0.0000
     42 H           1.2249    7.7253    0.6432 H       1  UNL1        0.0000
     43 C           2.8494    8.4044    1.8550 C.ar    1  UNL1        0.0000
     44 H           2.8943    7.5032    2.4588 H       1  UNL1        0.0000
     45 C           6.2266   10.4090    3.2167 C.ar    1  UNL1        0.0000
     46 C           6.0690   11.7778    3.4049 C.ar    1  UNL1        0.0000
     47 H           5.1286   12.1841    3.7394 H       1  UNL1        0.0000
     48 C           7.1252   12.6394    3.1644 C.ar    1  UNL1        0.0000
     49 H           6.9917   13.7009    3.3177 H       1  UNL1        0.0000
     50 C           8.3448   12.1526    2.7246 C.ar    1  UNL1        0.0000
     51 H           9.1630   12.8330    2.5388 H       1  UNL1        0.0000
     52 C           8.5084   10.7929    2.5204 C.ar    1  UNL1        0.0000
     53 H           9.4547   10.4063    2.1710 H       1  UNL1        0.0000
     54 C           7.4564    9.9308    2.7659 C.ar    1  UNL1        0.0000
     55 H           7.5737    8.8623    2.6039 H       1  UNL1        0.0000
     56 C           5.1943    3.5218    3.8277 C.ar    1  UNL1        0.0000
     57 C           5.3462    2.2071    4.2545 C.ar    1  UNL1        0.0000
     58 H           6.2938    1.8556    4.6286 H       1  UNL1        0.0000
     59 C           4.2755    1.3315    4.2048 C.ar    1  UNL1        0.0000
     60 H           4.4043    0.3130    4.5427 H       1  UNL1        0.0000
     61 C           3.0467    1.7491    3.7214 C.ar    1  UNL1        0.0000
     62 H           2.2170    1.0584    3.6858 H       1  UNL1        0.0000
     63 C           2.8883    3.0523    3.2810 C.ar    1  UNL1        0.0000
     64 H           1.9346    3.3831    2.8965 H       1  UNL1        0.0000
     65 C           3.9551    3.9293    3.3355 C.ar    1  UNL1        0.0000
     66 H           3.8427    4.9528    2.9871 H       1  UNL1        0.0000
     67 C           7.6374    4.2559    2.4948 C.ar    1  UNL1        0.0000
     68 C           7.6016    3.0015    1.9006 C.ar    1  UNL1        0.0000
     69 H           6.8701    2.2698    2.2143 H       1  UNL1        0.0000
     70 C           8.4985    2.6926    0.8917 C.ar    1  UNL1        0.0000
     71 H           8.4690    1.7150    0.4321 H       1  UNL1        0.0000
     72 C           9.4192    3.6324    0.4616 C.ar    1  UNL1        0.0000
     73 H          10.1102    3.3870   -0.3315 H       1  UNL1        0.0000
     74 C           9.4395    4.8959    1.0326 C.ar    1  UNL1        0.0000
     75 H          10.1403    5.6388    0.6805 H       1  UNL1        0.0000
     76 C           8.5473    5.2067    2.0387 C.ar    1  UNL1        0.0000
     77 H           8.5260    6.2017    2.4724 H       1  UNL1        0.0000
     78 C           3.0241    9.7665    5.4044 C.3     1  UNL1        0.0000
     79 C           3.0588    9.7679    6.9310 C.3     1  UNL1        0.0000
     80 H           3.1679    8.7471    7.2850 H       1  UNL1        0.0000
     81 H           2.1389   10.1876    7.3312 H       1  UNL1        0.0000
     82 H           3.8990   10.3530    7.2900 H       1  UNL1        0.0000
     83 C           1.7544    9.0441    4.9380 C.3     1  UNL1        0.0000
     84 H           1.6348    9.1331    3.8616 H       1  UNL1        0.0000
     85 H           0.8790    9.4716    5.4218 H       1  UNL1        0.0000
     86 H           1.8158    7.9879    5.1990 H       1  UNL1        0.0000
     87 C           2.9927   11.2059    4.9002 C.3     1  UNL1        0.0000
     88 H           3.8133   11.7740    5.3320 H       1  UNL1        0.0000
     89 H           2.0584   11.6763    5.1997 H       1  UNL1        0.0000
     90 H           3.0557   11.2296    3.8143 H       1  UNL1        0.0000
     91 C           8.4683    4.4869    5.7770 C.3     1  UNL1        0.0000
     92 C           8.4740    4.7267    7.2855 C.3     1  UNL1        0.0000
     93 H           8.3411    5.7877    7.4768 H       1  UNL1        0.0000
     94 H           9.4175    4.4013    7.7177 H       1  UNL1        0.0000
     95 H           7.6636    4.1804    7.7583 H       1  UNL1        0.0000
     96 C           8.4996    2.9853    5.5079 C.3     1  UNL1        0.0000
     97 H           7.7002    2.4874    6.0515 H       1  UNL1        0.0000
     98 H           9.4482    2.5752    5.8483 H       1  UNL1        0.0000
     99 H           8.4027    2.7865    4.4428 H       1  UNL1        0.0000
    100 C           9.7196    5.1311    5.1680 C.3     1  UNL1        0.0000
    101 H           9.8087    4.8758    4.1155 H       1  UNL1        0.0000
    102 H          10.6114    4.7858    5.6862 H       1  UNL1        0.0000
    103 H           9.6584    6.2149    5.2635 H       1  UNL1        0.0000
@<TRIPOS>BOND
     1    40    39    1
     2    38    37    1
     3    73    72    1
     4    39    37   ar
     5    39    41   ar
     6    37    35   ar
     7    71    70    1
     8    72    70   ar
     9    72    74   ar
    10    42    41    1
    11    75    74    1
    12    41    43   ar
    13    70    68   ar
    14    74    76   ar
    15    35    36    1
    16    35    34   ar
    17    43    34   ar
    18    43    44    1
    19    68    69    1
    20    68    67   ar
    21    76    77    1
    22    76    67   ar
    23    34     1    1
    24    53    52    1
    25    67     4    1
    26    52    50   ar
    27    52    54   ar
    28    51    50    1
    29    55    54    1
    30    50    48   ar
    31    54    45   ar
    32    64    63    1
    33    66    65    1
    34    48    49    1
    35    48    46   ar
    36    45    46   ar
    37    45     1    1
    38    63    65   ar
    39    63    61   ar
    40    65    56   ar
    41    46    47    1
    42     1     5    1
    43    62    61    1
    44    61    59   ar
    45     4    56    1
    46     4     6    1
    47    90    87    1
    48    56    57   ar
    49    84    83    1
    50   101   100    1
    51    59    57   ar
    52    59    60    1
    53    57    58    1
    54    99    96    1
    55    87    89    1
    56    87    88    1
    57    87    78    1
    58    83    86    1
    59    83    78    1
    60    83    85    1
    61     5     2    1
    62     5    78    1
    63   100   103    1
    64   100   102    1
    65   100    91    1
    66     6     3    1
    67     6    91    1
    68     2     9    1
    69    78    79    1
    70     3     9    1
    71    96    91    1
    72    96    98    1
    73    96    97    1
    74    17    14    1
    75    91    92    1
    76    16    14    1
    77    25    22    1
    78    14    15    1
    79    14     7    1
    80    24    22    1
    81     9     7    1
    82     9     8    1
    83    79    80    1
    84    79    82    1
    85    79    81    1
    86    22    23    1
    87    22     8    1
    88    92    93    1
    89    92    94    1
    90    92    95    1
    91    19    18    1
    92    31    30    1
    93     7    18    1
    94     7    10    1
    95     8    30    1
    96     8    26    1
    97    18    21    1
    98    18    20    1
    99    30    33    1
   100    30    32    1
   101    10    11    1
   102    10    13    1
   103    10    12    1
   104    29    26    1
   105    26    27    1
   106    26    28    1
